! r2scan-3c def2/J RI DEFGRID2 scfconv6 printgap
%output
    printlevel normal
end
%cpcm
    smd true
    smdsolvent "water"
end
* xyz 0 1
C -3.6769398341 -0.8443407944 -0.1330788265
C -2.643382284 0.1011645389 0.4674903173
C -1.2521833114 -0.1565100162 -0.1066599775
C -0.2076645828 0.7926787737 0.4989538233
C 1.1312570207 0.5086151323 -0.1254970772
O 1.5537286622 1.0389636268 -1.1323466172
O 1.7828675534 -0.4359793103 0.540389315
C 3.0539480286 -0.8804384281 0.0556433895
H -4.6603558186 -0.6476809341 0.2855226163
H -3.7297707536 -0.7154755221 -1.211636034
H -3.4142198236 -1.878721373 0.0754774033
H -2.9323863197 1.1335791318 0.2628818932
H -2.6156800355 -0.0302985633 1.5505785514
H -1.2712853412 -0.0197144495 -1.1902668929
H -0.9580416619 -1.1878905367 0.0983245393
H -0.1427222423 0.6320281256 1.5741209614
H -0.4813892061 1.8256472648 0.2864150715
H 3.8258002693 -0.5130767646 0.7303480613
H 3.2214693183 -0.4963520732 -0.9510875851
H 3.0341512939 -1.9676565761 0.058441868
*
