! r2scan-3c def2/J RI DEFGRID2 scfconv6 printgap
%output
    printlevel normal
end
* xyz 0 1
C -3.3664189137 -0.5557886118 -0.4007046729
C -2.6150005946 -0.0517026143 0.8265780155
C -1.1044675676 -0.2760633288 0.7419321113
C -0.4506024631 0.5759577178 -0.3426698355
C 1.0493298388 0.4606347042 -0.4070764324
O 1.7496579951 1.189407256 -1.0837994133
O 1.5268510341 -0.5203187103 0.3443440973
C 2.9382110883 -0.751750882 0.3657146187
H -4.4385597798 -0.458134493 -0.2496035331
H -3.099049754 0.0130755379 -1.287124384
H -3.1401967631 -1.6042197906 -0.5804666973
H -2.8155356335 1.0126436418 0.9642005819
H -2.9895544565 -0.5754550101 1.7080271796
H -0.9030167769 -1.3299676853 0.5455883933
H -0.653685698 -0.0283350125 1.70438008
H -0.6873898676 1.6332197662 -0.2038901902
H -0.8225816262 0.2946275198 -1.3304644693
H 3.4644371345 0.1210903122 -0.0225063732
H 3.1574238881 -1.6224565451 -0.251333243
H 3.2087324659 -0.9424194809 1.4011827494
*
