! r2scan-3c def2/J RI DEFGRID2 scfconv6 printgap
%output
    printlevel normal
end
%cpcm
    smd true
    smdsolvent "water"
end
* xyz 0 1
C 1.9838618952 -0.6686745979 -0.1886006141
C 1.0762672495 0.2463856011 0.6250642591
C 0.0271150309 0.9585251032 -0.2293527594
C -1.1041325027 0.0347900959 -0.6812383738
N -1.8242556784 -0.4963948541 0.4691674389
H 2.7369084455 -1.1187205121 0.4535806886
H 1.4130925837 -1.4683881197 -0.6524159252
H 2.4903066794 -0.1069491553 -0.9710526121
H 0.5607508271 -0.3350405007 1.3898224984
H 1.6902146066 0.9988829173 1.1246711714
H -0.408470854 1.7758615267 0.35092571
H 0.5017804054 1.3910880689 -1.1123529767
H -0.6940234267 -0.8147443526 -1.2326455137
H -1.7577845797 0.5956019291 -1.3734126167
H -2.5814044605 -1.0927984826 0.156392912
H -2.2323031487 0.2687259673 0.9966163344
*
