! r2scan-3c def2/J RI DEFGRID2 scfconv6 printgap
%output
    printlevel normal
end
%cpcm
    smd true
    smdsolvent "water"
end
* xyz 0 1
C -2.7342800761 -0.2812328206 -0.8095305418
C -1.8845917949 -0.7961926312 0.3471480608
C -1.2554844784 0.3229621234 1.1784870871
C -0.3145124795 1.22760578 0.3709735054
C 0.7808437826 0.4282076718 -0.2845795971
O 0.9298302628 0.3097601237 -1.4837094814
O 1.575390654 -0.1356943376 0.616613009
C 2.6665253822 -0.947031913 0.1740510069
H -2.1107561074 0.1876341298 -1.5669304774
H -3.2677692483 -1.1043809175 -1.2782861314
H -3.462650805 0.4439727363 -0.4547446705
H -2.5081761064 -1.4023395666 1.0075716787
H -1.0975711153 -1.4428979037 -0.0493365762
H -0.6914213141 -0.1208374899 2.0003829642
H -2.0458288044 0.9444684097 1.6016087082
H 0.1493657691 1.94717481 1.0461212893
H -0.8591939988 1.7610610667 -0.4061407151
H 2.4610357005 -1.9788237391 0.4557855171
H 3.5607107275 -0.5884005993 0.6790287705
H 2.7744489005 -0.8653670839 -0.9081757459
*
