! r2scan-3c def2/J RI DEFGRID2 scfconv6 printgap
%output
    printlevel normal
end
* xyz 0 1
C -3.3911733858 -1.0224522911 0.3087450492
C -2.0420860637 -0.3786659421 0.6015499969
C -1.3110624143 -0.0080462894 -0.6978743048
C 0.0048667767 0.6368856143 -0.3586979509
O 0.1885272488 1.8330359307 -0.2510590417
O 0.9528386231 -0.2641611191 -0.1486083154
C 2.2557201944 0.2062257684 0.2366186527
C 3.1976556411 -0.9816643521 0.2667761672
H -3.2603812588 -1.9303345596 -0.2741047989
H -3.8935229723 -1.2768645326 1.237946126
H -4.0256425538 -0.3403310384 -0.2512076065
H -1.4195520676 -1.0688587106 1.1738179288
H -2.1842656785 0.5245496687 1.1987336549
H -1.9103916366 0.6991603836 -1.2703857605
H -1.1265960795 -0.9082005436 -1.2827302466
H 2.5766584794 0.9647987215 -0.4848706996
H 2.1727949234 0.6839257932 1.2183532932
H 2.8409707275 -1.7200915547 0.9784564287
H 3.2506286455 -1.4398452937 -0.7163312399
H 4.1872851426 -0.6482921674 0.5609212881
*
