! r2scan-3c def2/J RI DEFGRID2 scfconv6 printgap
%output
    printlevel normal
end
* xyz 0 1
C -3.250971608 -0.173592049 0.9896021656
C -2.6907010366 -0.4370687745 -0.4036082493
C -1.1710108869 -0.6032473864 -0.4197959513
C -0.4386474063 0.689948139 -0.0532204383
C 1.0574260852 0.5643825361 -0.1566956583
O 1.7914900172 1.4281955149 -0.5937259268
O 1.5047371249 -0.5994038253 0.2988735634
C 2.915395362 -0.8263461151 0.263429672
H -4.3376992144 -0.1689763783 0.9611770505
H -2.9294624248 -0.9487768684 1.6811314951
H -2.9208592103 0.7893003242 1.369772594
H -3.1369446209 -1.3527274701 -0.7962003568
H -2.9721877427 0.3804903662 -1.0702126944
H -0.8594712441 -0.912029073 -1.4198247823
H -0.8805028667 -1.3892703125 0.2781370466
H -0.6616821728 0.9599583301 0.9810774382
H -0.7497121525 1.5141909472 -0.6964066164
H 3.0508819927 -1.8707510119 0.5260625387
H 3.4147412767 -0.1751182734 0.9817412061
H 3.3031890371 -0.6167864609 -0.7342408186
*
