! r2scan-3c def2/J RI DEFGRID2 scfconv6 printgap
%output
    printlevel normal
end
%cpcm
    smd true
    smdsolvent "water"
end
* xyz 0 1
C 2.9952834056 -0.7512753643 -0.1468633227
C 1.5457587645 -0.4119331039 0.1809784705
C 1.1940892749 1.007952977 -0.2581486358
C -0.200749297 1.4697625879 0.1678907871
C -1.3460788513 0.7507546621 -0.5285195521
Cl -1.7479705168 -0.8243171386 0.248799218
H 3.2291168035 -1.7667108348 0.1634755807
H 3.6722970251 -0.0708393481 0.364894886
H 3.1722851196 -0.669993319 -1.2170172548
H 0.8904968654 -1.1285552178 -0.31556043
H 1.3846962561 -0.5078994913 1.2573225856
H 1.2801312917 1.0796891798 -1.344527208
H 1.9238629538 1.6947333168 0.1764481449
H -0.298044656 2.5295433809 -0.0771422561
H -0.310004591 1.366864391 1.2487061696
H -2.2642591731 1.3325342529 -0.4747055917
H -1.1069219427 0.5246564396 -1.5660997606
*
