! pbe def2-sv(p) def2/J RI DEFGRID1 loosescf d4 GCP(DFT/SV(P)) printgap
%output
    printlevel normal
end
* xyz 0 1
C -3.6462468858 -0.618171812 0.2460965436
C -2.3461313642 -0.1734968785 -0.4111642676
C -1.1812060755 -0.2138085953 0.5738410395
C 0.1093214854 0.2536864328 -0.0456399793
O 0.2293771204 0.6945251149 -1.1687147943
O 1.1208217657 0.1364555505 0.8105300275
C 2.4331475341 0.5325002086 0.3767959137
C 3.1397305296 -0.6035749448 -0.3468346036
H -3.8950785272 0.0347394928 1.0789315145
H -4.4611441086 -0.5860810169 -0.4716383363
H -3.5560113472 -1.6350736272 0.6196641651
H -2.4495769514 0.8421612892 -0.7973458143
H -2.1171289031 -0.8192066601 -1.260907435
H -1.024474929 -1.2251259626 0.953141399
H -1.383543011 0.4266061013 1.435039002
H 2.3360024991 1.40405269 -0.277699091
H 2.954538775 0.8036472088 1.2951943085
H 2.6061399123 -0.8508409976 -1.2619122159
H 4.1490444177 -0.2959678627 -0.5999009127
H 3.1808000779 -1.4839225274 0.2888041474
*
