! r2scan-3c def2/J RI DEFGRID2 scfconv6 printgap
%output
    printlevel normal
end
* xyz 0 1
C -2.6665097265 -0.965909006 0.1534016643
C -2.9127586898 0.5357051634 0.2370686001
C -1.7665405139 1.3915717408 -0.3059261953
C -0.487898614 1.3315725727 0.5123998514
I 0.8924040912 -0.2529078823 -0.0696085987
H -2.3854853119 -1.2534889343 -0.8574902952
H -1.8777107059 -1.2783104453 0.8323861182
H -3.5705168007 -1.506412602 0.4233290915
H -3.1062100589 0.8143701619 1.2757721956
H -3.8078686092 0.7773270919 -0.3398444246
H -1.5681819451 1.1228511393 -1.3452157378
H -2.0956713091 2.4346882032 -0.2982497879
H -0.6942580551 1.1680396802 1.5666735926
H 0.0953830913 2.2402874692 0.3934373565
*
