! r2scan-3c def2/J RI DEFGRID2 scfconv6 printgap
%output
    printlevel normal
end
* xyz 0 1
C -3.4341873813 -0.9663527911 0.3058051708
C -2.0865462996 -0.6243520702 -0.3164644219
C -1.2951369298 0.3455504152 0.5739132533
C 0.0156287484 0.6704231042 -0.0897735257
O 0.20894729 1.6281026864 -0.8117706245
O 0.9356492946 -0.2427121556 0.1814636766
C 2.2438633318 -0.1103635306 -0.4009221423
C 3.2661465841 -0.6696714165 0.5715867651
H -3.9787398489 -1.6533748032 -0.3360291899
H -3.2967203024 -1.4346755562 1.2768337596
H -4.0324079784 -0.0683445531 0.4364664134
H -2.2362137587 -0.165240394 -1.296003129
H -1.5016088374 -1.5354318423 -0.4551084184
H -1.1007526218 -0.1203882138 1.5390249202
H -1.8582465339 1.2689316897 0.7059700656
H 2.245144251 -0.6689379066 -1.3418488944
H 2.4210187057 0.9476405937 -0.6190309391
H 3.2534424053 -0.1029482108 1.4983026789
H 3.0368228484 -1.7078835858 0.792403011
H 4.2544500959 -0.6064742757 0.1283244098
*
