! r2scan-3c def2/J RI DEFGRID2 scfconv6 printgap
%output
    printlevel normal
end
%cpcm
    smd true
    smdsolvent "water"
end
* xyz 0 1
C 0.5597170346 -2.3238400231 -0.2418396211
O 1.0701615242 -1.0493635059 0.1440325778
C 0.2472140806 0.0142956072 -0.1695729006
O 0.9761824321 1.1277722229 0.1987119238
C 0.3551289348 2.3715338771 -0.1194516228
O -0.9667317274 -0.0561759721 0.5214085933
C -2.152984751 -0.0821650949 -0.2696946317
H 1.3422164322 -3.0297598079 0.0185608826
H 0.369904072 -2.3460070807 -1.3192603368
H -0.35519597 -2.5543090195 0.3078559798
H 0.0339714712 0.0326626948 -1.2678398546
H 0.1567429549 2.4325653449 -1.1938151333
H 1.0757045048 3.1280668401 0.1752693831
H -0.5723701777 2.4935495911 0.4437345315
H -2.1694533112 -0.9579983602 -0.9224748962
H -2.2448040652 0.8268975885 -0.8685352326
H -2.9657677132 -0.1381601433 0.4490867128
*
