! r2scan-3c def2/J RI DEFGRID2 scfconv6 printgap
%output
    printlevel normal
end
%cpcm
    smd true
    smdsolvent "water"
end
* xyz 0 1
C 2.2624831775 1.0949695926 0.7658233307
C 1.3781335633 0.4047337207 -0.2600140019
C 2.1609016255 -0.560897121 -1.1346403144
S 0.0276757968 -0.5078204514 0.6171228667
C -1.4798714394 0.3186086992 -0.0590868257
C -1.7468658548 -0.1394061843 -1.4828650105
C -2.6394374944 -0.0061574186 0.8686680072
H 1.6739963434 1.7652156856 1.3880115538
H 2.7352830416 0.3561493891 1.4087923138
H 3.0366242787 1.6706274068 0.2629165715
H 0.8712009761 1.1490320838 -0.8777411153
H 1.5019060251 -1.0612918558 -1.8401643807
H 2.6398396827 -1.3177475172 -0.5176474355
H 2.9269667818 -0.0233113043 -1.6894230446
H -1.2674223428 1.3910333068 -0.0305406812
H -2.6348253972 0.3563538321 -1.8694894044
H -0.9090324615 0.0965068445 -2.1354811075
H -1.908451532 -1.2148601761 -1.5019773371
H -3.5401094143 0.4975328311 0.525843521
H -2.4173306841 0.3169279127 1.8826745731
H -2.8184753961 -1.078826992 0.8814587656
*
