! pbe def2-sv(p) def2/J RI DEFGRID1 loosescf d4 GCP(DFT/SV(P)) printgap
%output
    printlevel normal
end
* xyz 0 1
C 2.1441732067 -0.26523572 0.5807757859
C 1.3687483928 0.4575213477 -0.5157560871
C -0.0413210177 -0.0944056532 -0.7230683682
C -0.9752327768 0.1636678234 0.4583105274
N -2.3449898116 -0.1806520202 0.0919439574
H 2.1830396481 -1.3332020741 0.3777069677
H 3.1629141089 0.111352816 0.6314129097
H 1.6792976181 -0.1149061996 1.5515651908
H 1.3062609732 1.5210362223 -0.2759447617
H 1.9167743835 0.3615628117 -1.4554739746
H -0.4854492055 0.3732308368 -1.6032856182
H 0.0130978938 -1.1698648868 -0.9092213918
H -0.9615296061 1.2294948104 0.7055198692
H -0.6203029881 -0.3926820866 1.3413533239
H -2.9612278064 -0.0255655845 0.8818357308
H -2.3936101242 -1.1667786707 -0.1429547069
*
