! r2scan-3c def2/J RI DEFGRID2 scfconv6 printgap
%output
    printlevel normal
end
%cpcm
    smd true
    smdsolvent "water"
end
* xyz 0 1
C -3.2188497765 -1.0490445097 0.022992486
C -2.715221409 0.3357551997 0.4129736951
C -1.2015940887 0.3891319899 0.6194212228
C -0.4198487754 0.1525135668 -0.6821883777
C 1.0460312288 0.3455223235 -0.408745368
O 1.6645056677 1.3703353217 -0.6108035471
O 1.5897568439 -0.7453737377 0.1180936037
C 2.9703448148 -0.7056776744 0.4893001513
H -2.8988415448 -1.7891235983 0.7525675081
H -4.3051047196 -1.0535448517 -0.016390341
H -2.844844722 -1.3409654174 -0.9542658363
H -3.0005203404 1.0582881201 -0.3537704556
H -3.1940037621 0.6368584024 1.3467743973
H -0.9050257636 -0.364005283 1.3519377482
H -0.9302344945 1.371373379 1.0136542521
H -0.7322781916 0.8715911543 -1.4387781053
H -0.5811257098 -0.8647779586 -1.0335544816
H 3.3246299869 -1.7311892486 0.4421881451
H 3.061826345 -0.313186287 1.5022516087
H 3.522775582 -0.0645819562 -0.198658233
*
