! r2scan-3c def2/J RI DEFGRID2 scfconv6 printgap
%output
    printlevel normal
end
* xyz 0 1
C -2.4598575851 -1.3312366926 -0.2319226457
C -2.5444550888 0.1536922732 0.0997064373
C -1.2793099648 0.6465735201 0.8113863352
C -0.0892280633 0.5661649821 -0.1099283964
O -0.0048428785 1.130320894 -1.1821521238
O 0.8647950384 -0.2043253944 0.3914869649
C 2.0847855985 -0.3799432744 -0.3491031605
C 3.2377459161 -0.4952722939 0.631363727
H -3.3789611535 -1.6667291836 -0.7047287958
H -1.6345991055 -1.5215817593 -0.9157557264
H -2.3000114457 -1.9159653087 0.6707447453
H -3.4036326531 0.3372175391 0.7452596502
H -2.6746561976 0.728952552 -0.8189308138
H -1.0743745851 0.0500069575 1.699276367
H -1.4077214931 1.6925257736 1.0936798399
H 1.9799126165 -1.2920998881 -0.9443736678
H 2.2055572468 0.4718096583 -1.0261370752
H 3.3316023047 0.4182685122 1.2117375149
H 3.0640191182 -1.3252894615 1.309721859
H 4.1584920693 -0.6659479467 0.0832902635
*
