! r2scan-3c def2/J RI DEFGRID2 scfconv6 printgap
%output
    printlevel normal
end
* xyz 0 1
C 3.3035558085 0.3294008593 -0.1800790782
C 2.2834551737 -0.6647099617 0.3643798601
C 0.9058542711 -0.5300299551 -0.2846797996
C 0.2083253715 0.7850022273 0.0602170015
C -1.1918377198 0.8698890705 -0.5191765161
Cl -2.2901961842 -0.3402965021 0.2392485056
H 3.0280489771 1.3501766695 0.0698901668
H 3.3761414921 0.2444453967 -1.2619128772
H 4.2841947807 0.1306117794 0.2454428656
H 2.6497994072 -1.6782957738 0.1874074054
H 2.1876743796 -0.5334966517 1.4443404331
H 0.2772987083 -1.3572591526 0.0524238159
H 1.0084513926 -0.610970559 -1.3689864173
H 0.77434989 1.623096898 -0.3486494839
H 0.1617272732 0.9002599786 1.1445505775
H -1.6460981348 1.8402523439 -0.3287743824
H -1.1978401993 0.6521671965 -1.5857689671
*
