! r2scan-3c def2/J RI DEFGRID2 scfconv6 printgap
%output
    printlevel normal
end
%cpcm
    smd true
    smdsolvent "water"
end
* xyz 0 1
C -3.1245560945 -1.1240076556 0.0292508066
C -1.9381785022 -0.2774012735 0.4747014306
C -1.3552165055 0.5274669534 -0.685101421
C -0.1647479343 1.3882379792 -0.2460271757
C 0.9792153015 0.5332713382 0.2347416579
O 1.434271109 0.5543617816 1.3603078565
O 1.435391631 -0.2548350031 -0.730024019
C 2.5165657318 -1.1481189672 -0.4495672385
H -3.9131061058 -0.49053089 -0.3695244113
H -2.8224612623 -1.8252039696 -0.7450495925
H -3.5260747952 -1.6880668658 0.8670167333
H -2.2535224186 0.4061908421 1.2659304389
H -1.1632300027 -0.9240969571 0.8948105103
H -2.1266414456 1.1820233755 -1.0928987343
H -1.0305561301 -0.1511308634 -1.4754610998
H -0.4516071324 2.0565916734 0.5657222937
H 0.1887094556 1.9755307049 -1.0940976124
H 2.1933635093 -2.1497978033 -0.7255355157
H 2.769768293 -1.102834301 0.610259286
H 3.3687046902 -0.8451023374 -1.0556498508
*
