! pbe def2-sv(p) def2/J RI DEFGRID1 loosescf d4 GCP(DFT/SV(P)) printgap
%output
    printlevel normal
end
* xyz 0 1
C -3.3557987498 -1.0050953668 0.3792242349
C -1.8512514847 -0.7901558011 0.4942869393
C -1.4023374824 0.3978220241 -0.351459828
C 0.0756737071 0.6855403247 -0.3005130932
O 0.605688968 1.5785539682 -0.9336103628
O 0.7357235733 -0.124222077 0.5132528967
C 2.1580103703 0.0397615151 0.6383543199
C 2.8960908437 -0.7614061509 -0.4231521075
H -3.6628341421 -1.8538249026 0.9840023709
H -3.8950687959 -0.1254142454 0.7218913751
H -3.6362143438 -1.1989348983 -0.6532399053
H -1.3252964562 -1.6871958259 0.1653997943
H -1.5824944545 -0.6138532444 1.5365525129
H -1.9143843919 1.3099526752 -0.0346575732
H -1.6611971085 0.2433361882 -1.4018288352
H 2.3963608083 1.10431341 0.5524231011
H 2.389046662 -0.3219521379 1.6407440888
H 3.9655825399 -0.6672059273 -0.2659436695
H 2.6151005471 -1.8093975699 -0.3643709354
H 2.6501564298 -0.3826683808 -1.4127934256
*
