! r2scan-3c def2/J RI DEFGRID2 scfconv6 printgap
%output
    printlevel normal
end
* xyz 0 1
C -2.4564661953 -1.3379246629 -0.307926238
C -2.5523934029 0.1306805088 0.0873361384
C -1.2977030243 0.5965242401 0.8321264491
C -0.0973827095 0.59375386 -0.0790643669
O -0.0498968937 1.119804367 -1.1725460295
O 0.9264484998 -0.0557456341 0.456576482
C 2.1485806813 -0.1235057817 -0.2976547922
C 3.1877715707 -0.8332998491 0.5480082454
H -1.6167686482 -1.4946578482 -0.9826220076
H -2.3133300389 -1.9620685797 0.57087571
H -3.3644832416 -1.6543627607 -0.8140635683
H -3.4200807501 0.2818640915 0.7297787458
H -2.6742323343 0.7442423604 -0.8072790952
H -1.0860330569 -0.0442493835 1.6872038971
H -1.4402695113 1.6221850341 1.1772427065
H 1.9483938391 -0.660135917 -1.2309897939
H 2.4553035663 0.8965356847 -0.5515586815
H 2.8457504715 -1.8342054075 0.7937383279
H 4.1185888872 -0.8975950369 -0.005631548
H 3.3551385123 -0.2841179528 1.4697839916
*
