! pbe def2-sv(p) def2/J RI DEFGRID1 loosescf d4 GCP(DFT/SV(P)) printgap
%output
    printlevel normal
end
* xyz 0 1
C -4.4177854332 -1.2848227553 0.1426552213
C -3.5938191218 -2.383288018 -0.060994128
C -2.2305992563 -2.2082850761 -0.2101302407
C -1.6654991422 -0.9361016735 -0.1517892908
C -2.4972323495 0.1695204486 0.0557689686
C -3.8713448084 -0.0168289673 0.1979247227
C -1.9378991695 1.5247191114 0.1236201908
O -2.6592182799 2.5122283951 0.2529123911
C -0.4712358435 1.643188985 0.0449049505
C 0.0597272581 2.9120287701 0.1991943939
C 1.4366709591 3.1090708122 0.142300715
C 2.2759705832 2.0476558769 -0.0617308552
C 1.7828495359 0.728914082 -0.2210107405
C 0.3672815627 0.5241241434 -0.1721114937
C -0.2049048382 -0.7969730119 -0.3247891745
O 0.4643078245 -1.8108849771 -0.5878716479
N 2.6062620886 -0.3000113296 -0.4544177606
C 4.036562627 -0.3630145809 -0.303744926
C 4.4059403393 -1.3786126959 0.7914622884
O 3.9375253677 -2.6764588101 0.5131807696
H -5.4818732597 -1.4187527469 0.2574359852
H -4.0155064783 -3.3752112154 -0.1044449123
H -1.5728131814 -3.0491952468 -0.3731146801
H -4.4880447942 0.8560498198 0.3535527823
H -0.6185097609 3.7358897617 0.3595642254
H 1.8392080108 4.1033625415 0.255541196
H 3.3366578252 2.2246571076 -0.1194281959
H 2.148659696 -1.2096728022 -0.5278825322
H 4.45372846 0.603583351 -0.030870534
H 4.4733873786 -0.6820833329 -1.2559885038
H 3.9290998066 -1.0932921971 1.7321757763
H 5.4937042624 -1.3775700284 0.9323962191
H 4.3823094108 -3.0174572089 -0.2754623572
*
