! r2scan-3c def2/J RI DEFGRID2 scfconv6 printgap
%output
    printlevel normal
end
%cpcm
    smd true
    smdsolvent "water"
end
* xyz 0 1
C -4.6785767008 -0.9169329684 0.2322056312
C -4.020921123 -2.1326661244 0.1044878592
C -2.6460389505 -2.1646076603 -0.0357634011
C -1.9035537297 -0.9855194195 -0.050385168
C -2.568252031 0.2389272783 0.0793059918
C -3.9548860204 0.2602128844 0.2194248351
C -1.821350396 1.5029333858 0.0708175874
O -2.3931190016 2.5867066709 0.1796031041
C -0.3589276498 1.410123247 -0.072293582
C 0.3478007387 2.5999346927 -0.0539309443
C 1.7359354004 2.5973286345 -0.1666479654
C 2.4116176803 1.416632579 -0.3126682056
C 1.7321257655 0.1755247285 -0.3572559309
C 0.308763999 0.1701676457 -0.2191222971
C -0.4378621963 -1.0678325298 -0.207888291
O 0.0901485664 -2.1899076295 -0.3178267527
N 2.398016696 -0.9708116469 -0.5483968874
C 3.8241477342 -1.1508116042 -0.649080185
C 4.5409704014 -1.1449742566 0.721532924
O 4.9605288775 0.1357403392 1.1342720388
H -5.7512586237 -0.8889887879 0.3416552969
H -4.5810715064 -3.0545090657 0.1142836991
H -2.1161432827 -3.1001501635 -0.1372865114
H -4.4394023308 1.220486987 0.3174225781
H -0.2034068314 3.5208372927 0.059782717
H 2.2764211354 3.5301289317 -0.1335604795
H 3.4859018479 1.4245249894 -0.3669210062
H 1.8245810412 -1.810042542 -0.4877620848
H 4.2556343129 -0.3781706688 -1.2900553909
H 3.984840254 -2.1200441904 -1.1207384229
H 5.3934942091 -1.8307095371 0.6859837133
H 3.8473018297 -1.4945352325 1.4899672962
H 5.7574298195 0.3848607767 0.6461467845
*
