! r2scan-3c def2/J RI DEFGRID2 scfconv6 printgap
%output
    printlevel normal
end
%cpcm
    smd true
    smdsolvent "water"
end
* xyz 0 1
C 1.4595096893 -0.4765116534 -1.4305829738
C 1.5236747604 -0.176781806 0.0561070623
C 1.9517521491 1.2523860585 0.3519276648
S -0.0060807896 -0.6532226486 0.9807648065
C -1.5251171681 0.0247397714 0.1713298133
C -1.4508254821 1.512040798 -0.1229541551
C -1.9465072357 -0.7956823273 -1.0380788124
H 0.8216875304 0.2375464461 -1.9455574308
H 2.4597867037 -0.4032764644 -1.8532975028
H 1.0837519371 -1.4820319306 -1.6032462029
H 2.234150865 -0.8629430301 0.5295261224
H 2.9762582461 1.3986343948 0.0152977928
H 1.9068755777 1.4452023122 1.4211272251
H 1.3171137513 1.970128968 -0.1592936753
H -2.2437487168 -0.1448755072 0.9803401928
H -1.0809779811 2.0562836195 0.742554176
H -0.8035649355 1.7097528867 -0.973760158
H -2.447032803 1.8788932 -0.3630021179
H -1.9061312068 -1.8571515413 -0.8056770651
H -1.3051619469 -0.6005462124 -1.8923934531
H -2.9683873112 -0.5383089544 -1.3097705168
*
