! r2scan-3c def2/J RI DEFGRID2 scfconv6 printgap
%output
    printlevel normal
end
* xyz 0 1
C -2.175982922 -1.4726577065 -0.2335127725
C -2.4864582801 -0.0005296009 0.0083631467
C -1.356895936 0.6972159742 0.7754890847
C -0.1008631672 0.7349128644 -0.05655279
O -0.0086618059 1.2605744015 -1.1476442739
O 0.9016613258 0.1098554972 0.5427921838
C 2.1717487761 0.0298340089 -0.1266959062
C 2.8647462017 -1.2501152653 0.3029651141
H -1.2892414551 -1.5770286492 -0.8560783338
H -1.9969821382 -1.9852869435 0.7085613653
H -3.0068425285 -1.9565871135 -0.7398448197
H -3.4079773733 0.0906259967 0.5837299595
H -2.6254224271 0.5084723137 -0.9473539438
H -1.1420555686 0.1781841907 1.7085853719
H -1.6462045454 1.7277483681 0.9860119088
H 1.9971805592 0.0596681998 -1.2071489069
H 2.7540242711 0.9114125661 0.1583280006
H 2.2744542261 -2.1143749506 0.0116814321
H 3.8387541387 -1.3071902957 -0.1716783702
H 2.9892037738 -1.2586367203 1.3816657005
*
