! r2scan-3c def2/J RI DEFGRID2 scfconv6 printgap
%output
    printlevel normal
end
%cpcm
    smd true
    smdsolvent "water"
end
* xyz 0 1
C -1.7309472002 -1.3496985727 0.3549301734
C -2.3772312897 -0.0190446933 -0.0104835626
C -1.4349440887 0.9299478179 -0.750580561
C -0.2745453917 1.430766549 0.1161945911
C 0.8119813009 0.4131790613 0.3413813368
O 1.3454238414 0.2003566379 1.4129226115
O 1.1729328511 -0.2021473038 -0.7784279833
C 2.2175086792 -1.1717287418 -0.6914276871
H -0.9199950471 -1.2071217359 1.0665839913
H -2.4623881012 -2.012495144 0.8111211817
H -1.3316726318 -1.8356120745 -0.5328328752
H -3.2407136072 -0.2117311651 -0.6503207395
H -2.7390070998 0.4675233673 0.897808161
H -2.0078217394 1.7981278232 -1.0792315996
H -1.0317894453 0.434248145 -1.6342804661
H -0.6300327156 1.7647709234 1.0915770513
H 0.2022100105 2.276160129 -0.3851616309
H 2.4414350546 -1.4553554559 -1.7149312422
H 1.8786124263 -2.0327029941 -0.1134865771
H 3.0910981821 -0.739036445 -0.2021920152
*
