! r2scan-3c def2/J RI DEFGRID2 scfconv6 printgap
%output
    printlevel normal
end
%cpcm
    smd true
    smdsolvent "water"
end
* xyz 0 1
C -1.7759185348 -1.2069944982 -0.5657167594
C -2.3607318639 -0.0621396956 0.2523254221
C -1.3334086856 0.6306057942 1.1473498326
C -0.2610550771 1.3937499283 0.3624379739
C 0.7787660989 0.5141380055 -0.2792223066
O 1.1968492347 0.6557146703 -1.4120137305
O 1.2399872277 -0.4166784528 0.547736647
C 2.2519269828 -1.2939535081 0.0525794538
H -1.2954353431 -1.9339729778 0.0856485902
H -2.5603949953 -1.7109365916 -1.1252571988
H -1.0398721717 -0.8406655076 -1.2789061741
H -2.8051730478 0.6727081443 -0.422253813
H -3.1576135004 -0.4550359185 0.8868549931
H -0.8490116501 -0.1051149853 1.7901406078
H -1.8566197707 1.3460084487 1.7833520028
H 0.279634459 2.0499049811 1.0484238433
H -0.7102442027 2.0079001525 -0.4188298419
H 2.5250214247 -1.9290979975 0.8893639561
H 3.1083384001 -0.7173876588 -0.2995896044
H 1.8595709047 -1.8856870482 -0.7758318891
*
