! r2scan-3c def2/J RI DEFGRID2 scfconv6 printgap
%output
    printlevel normal
end
* xyz 0 1
C 1.9216867847 1.1787395834 0.8109974459
C 1.4116825503 0.2856259666 -0.3076116164
C 2.4926550751 -0.6444056041 -0.8335663316
S 0.0030314249 -0.7462692014 0.2969367609
C -1.4146016182 0.4089505279 0.0316893364
C -1.9270139419 0.2871140066 -1.3936742088
C -2.4909211685 0.0856035538 1.0549381597
H 2.7245975767 1.8137942792 0.4426456923
H 1.1270602033 1.8143178618 1.1963163324
H 2.3008049775 0.5696120956 1.6283603546
H 1.0064315787 0.8875310662 -1.1247797776
H 2.8592725488 -1.2821594675 -0.0323992421
H 3.3225630044 -0.0626553389 -1.2281331991
H 2.0978655719 -1.2785632547 -1.6235569949
H -1.0161781884 1.4104499299 0.2120383377
H -1.1355421289 0.4908792197 -2.1119592396
H -2.2990815332 -0.7196595619 -1.5693129866
H -2.7356062752 0.9958356142 -1.5597225719
H -3.3264019241 0.7729857253 0.9440588609
H -2.0946378283 0.1700930482 2.0638355338
H -2.8499669355 -0.9309717074 0.9111787229
*
