! pbe def2-sv(p) def2/J RI DEFGRID1 loosescf d4 GCP(DFT/SV(P)) printgap
%output
    printlevel normal
end
* xyz 0 1
C 1.833583298 -0.1669562799 1.1688173932
C 1.3574278715 -0.3926236599 -0.2746046938
C 1.7348339547 0.7999891861 -1.1554655106
N -0.057118919 -0.699537958 -0.4220686789
C -1.0467490125 0.2448756159 0.0845716588
C -1.6048322496 -0.1437881428 1.4580979067
C -2.1882271065 0.3386123357 -0.9329332778
H 1.3802261357 0.7277609318 1.5895107376
H 1.5757200167 -1.0197732812 1.7940986183
H 2.9133170428 -0.0433271061 1.1851366846
H 1.8798679126 -1.2742816235 -0.6676413592
H 1.3438240367 1.7295393047 -0.7498931417
H 1.3304579672 0.6589802783 -2.1535915615
H 2.8161576451 0.8840035008 -1.2198425283
H -0.2561218245 -1.6254813733 -0.0629713042
H -0.575096087 1.2292083696 0.1599640878
H -2.326602189 0.5966553738 1.7939061213
H -2.1058780941 -1.1084144943 1.3957418506
H -0.8125027226 -0.2121566264 2.1993075157
H -1.7945366445 0.6233763905 -1.9040985276
H -2.9206864972 1.0764682191 -0.6164755941
H -2.6796576699 -0.6259009961 -1.0305270047
*
