! pbe def2-sv(p) def2/J RI DEFGRID1 loosescf d4 GCP(DFT/SV(P)) printgap
%output
    printlevel normal
end
* xyz 0 1
C -3.9179538908 0.1835591546 1.850366932
C -3.3305154965 0.4441929495 0.4654256403
H -3.599329718 1.4419473342 0.1119114465
C -1.8248082093 0.3002862699 0.4078078431
C -1.1605939897 -0.7109775539 1.0915903072
C 0.2122144851 -0.8366153804 1.0054723349
C 0.9807259633 0.0339630606 0.2334412662
C 0.2871165373 1.0255857259 -0.4526113282
C -1.0833010684 1.1680047451 -0.3835560336
F 0.9662337492 1.8920772976 -1.2615801001
C 2.442634209 -0.1111691507 0.1532357961
C 3.0087155718 -1.3749956272 -0.001022087
C 4.3811134956 -1.5242053115 -0.0713535225
C 5.2074583758 -0.4157465332 0.0164429381
C 4.6533438142 0.84354904 0.173648512
C 3.2805713398 0.9974663592 0.2406694474
C -3.8495084689 -0.5588660434 -0.5505314675
O -4.0972625919 -1.7192350875 -0.31318886
O -3.9584426531 -0.0286235685 -1.7563833843
H -3.3383630087 0.7048186857 2.606138129
H -4.9458292253 0.5340089968 1.8878283083
H -3.9168732727 -0.8816142593 2.0656829961
H -1.719493326 -1.4094659179 1.6921395633
H 0.712848687 -1.6161973397 1.5578007595
H -1.5581184656 1.9518360499 -0.9524811526
H 2.3660913565 -2.2384480943 -0.0862299759
H 4.8076090521 -2.5079564203 -0.1969314688
H 6.2790087429 -0.5327403382 -0.0385162549
H 5.2918601188 1.7111151679 0.2449282419
H 2.8570438704 1.9818877254 0.3729413405
H -4.2476227103 -0.6713240965 -2.4335527371
*
