! r2scan-3c def2/J RI DEFGRID2 scfconv6 printgap
%output
    printlevel normal
end
* xyz 0 1
C -2.359409967 -1.2895729983 -0.1857234391
C -1.9290200302 -0.2045638093 0.7955047185
C -1.553716888 1.1135019195 0.1162628892
C -0.3666302187 0.9839750821 -0.8469298177
C 0.8532867417 0.4871315151 -0.1182374684
O 1.4028028917 1.0608199501 0.7988888562
O 1.2721163182 -0.6801983747 -0.5971327002
C 2.4261186343 -1.2698023214 0.0063146062
H -3.1513451772 -0.9213098934 -0.8334078787
H -1.5241152907 -1.6123237765 -0.8015434752
H -2.7329443376 -2.1550843413 0.3557318445
H -2.7477108671 -0.006622424 1.49062327
H -1.0796843759 -0.5599493646 1.3850072207
H -1.2941388536 1.8433297179 0.885798776
H -2.4113790864 1.4919761758 -0.4411167334
H -0.1344911121 1.9690657851 -1.2538815466
H -0.5925614003 0.2995482171 -1.6617861886
H 3.2482519611 -0.5532395257 0.0178732356
H 2.6678011817 -2.1347968943 -0.6030367069
H 2.199565515 -1.5655215949 1.0314075814
*
