! r2scan-3c def2/J RI DEFGRID2 scfconv6 printgap
%output
    printlevel normal
end
* xyz 0 1
C -3.5472402188 0.1307637912 1.8907208799
C -3.0509896536 0.5492861475 0.5056445029
H -3.1862285499 1.6287297683 0.3856053026
C -1.5836278291 0.2112954075 0.3353773883
C -1.1902529851 -1.1365182734 0.2252415498
C 0.1277459692 -1.471116184 0.0955061897
C 1.1292962084 -0.4777546189 0.0733072772
C 2.4951055753 -0.8038628104 -0.0572486762
C 3.4459045004 0.1860960568 -0.0738144376
C 3.054139957 1.5411042907 0.0405890865
C 1.7404281679 1.8758629834 0.166461937
C 0.7383756508 0.8802943844 0.1865166353
C -0.6281941207 1.1948827409 0.313021644
O 4.7892404674 -0.0096132121 -0.1944080119
C 5.2711875313 -1.3338469919 -0.3143826553
C -3.8252677296 -0.1669992153 -0.5867888376
O -4.4784397572 -1.1681594393 -0.409441983
O -3.727652784 0.3518141287 -1.810298879
H -2.9476891259 0.6105820114 2.658985929
H -4.5889153917 0.4144314109 2.0175601488
H -3.474254759 -0.9473324042 2.0055349894
H -1.9491435136 -1.9057368501 0.2372151309
H 0.418882958 -2.5075152569 0.008386518
H 2.7610312169 -1.8456351414 -0.1418760987
H 3.8320926614 2.2878296814 0.0237328105
H 1.4495018308 2.9116735861 0.2535615446
H -0.9082572785 2.2345710293 0.4034911859
H 5.0175589776 -1.9265896036 0.5683588553
H 6.3516695343 -1.2405861996 -0.3953431996
H 4.8747447471 -1.8172473341 -1.2111017775
H -3.183974688 1.1583009667 -1.8609393875
*
