! r2scan-3c def2/J RI DEFGRID2 scfconv6 printgap
%output
    printlevel normal
end
%cpcm
    smd true
    smdsolvent "water"
end
* xyz 0 1
C -3.542777184 1.6165704017 -0.9840804278
C -3.1238195382 0.1766758005 -0.7022925973
H -3.5010896961 -0.4845619199 -1.488146641
C -1.6252659844 -0.0342074889 -0.5848809494
C -1.1115188949 -1.316763184 -0.8614462436
C 0.2243382404 -1.5791824576 -0.7521353056
C 1.1289594214 -0.5707748018 -0.3592043611
C 2.5132813471 -0.8160400462 -0.2470153459
C 3.3658601579 0.1875124201 0.139950805
C 2.853478639 1.474365037 0.4289002626
C 1.5198052146 1.7295769321 0.3273389234
C 0.6161837652 0.7184977122 -0.0694130917
C -0.767510381 0.9562156791 -0.1815033526
O 4.716918226 0.0671545366 0.2811074694
C 5.3148223158 -1.185851786 0.0117878323
C -3.6733247273 -0.3394878655 0.6125670377
O -4.0744516275 -1.4737407377 0.7767681021
O -3.6231210121 0.5463770131 1.5895332129
H -4.6079991245 1.6524357635 -1.1984546369
H -3.3451283813 2.2539772401 -0.1279597361
H -2.9985749965 1.9925473485 -1.8458274825
H -1.797040959 -2.0986893045 -1.1553644181
H 0.6043039859 -2.567072015 -0.9675431665
H 2.8716545953 -1.8077140504 -0.4738820149
H 3.556701698 2.2350411403 0.7289889393
H 1.1360473896 2.7138073372 0.5490315177
H -1.132664609 1.9425805837 0.0556725824
H 4.9319203988 -1.9574756587 0.6848559239
H 6.3782455087 -1.0407480931 0.1873240375
H 5.1499862051 -1.4857147457 -1.0264122245
H -3.9346089755 0.1858323128 2.442044494
*
