! r2scan-3c def2/J RI DEFGRID2 scfconv6 printgap
%output
    printlevel normal
end
* xyz 0 1
C -3.0002852662 -0.9169927441 -0.2508574895
C -2.3259795303 0.4111942047 -0.5725285621
C -1.2585110537 0.7928832165 0.4593398959
C 0.0063141884 -0.0171972981 0.3287545924
O 0.0734185006 -1.205041961 0.0949982731
O 1.0768088179 0.7485291976 0.5233572166
C 2.3778702881 0.1427631945 0.4433988445
C 2.8949994082 0.1460896461 -0.9871086736
H -3.727723521 -1.1665360801 -1.018790333
H -2.2602670964 -1.7114635186 -0.202929382
H -3.5129277985 -0.8623890217 0.7067345102
H -3.0769968457 1.2022084688 -0.595177973
H -1.8659849022 0.3552941354 -1.5610436327
H -1.6512599793 0.6230374741 1.4645614928
H -0.9852362086 1.8441147494 0.3704730669
H 3.0060672383 0.7515040032 1.0943439224
H 2.3108864674 -0.8800660751 0.826590668
H 2.9043258584 1.1595652882 -1.3788412822
H 3.9025949798 -0.2559714849 -1.0066415728
H 2.2563711351 -0.4710436165 -1.6151750078
*
