! r2scan-3c def2/J RI DEFGRID2 scfconv6 printgap
%output
    printlevel normal
end
* xyz 0 1
C -3.5995553695 0.053272373 1.8863052923
C -3.0548794762 0.5288864975 0.5394737245
H -3.1776429327 1.6097367789 0.4360567194
C -1.5868371157 0.1874742607 0.3814522055
C -1.1800439163 -1.1601910837 0.3555255491
C 0.1398684214 -1.490164103 0.2316578466
C 1.1302131199 -0.4911475189 0.1278172724
C 2.4982649064 -0.8114482718 0.003924032
C 3.4371865452 0.1843780909 -0.0981536748
C 3.0311450151 1.5397614758 -0.080035109
C 1.7151968515 1.8687554676 0.0384261723
C 0.7246208634 0.8672287092 0.1460795765
C -0.643582816 1.1760287103 0.2696716222
O 4.7818321276 -0.0058893892 -0.2208059179
C 5.2766923197 -1.3306076697 -0.2449427809
C -3.7791773954 -0.1300703532 -0.6137018935
O -4.2261421276 -1.2562931108 -0.6073863613
O -3.8411249069 0.657918853 -1.6756154931
H -3.5957229785 -1.0324643097 1.9304030743
H -2.9828198631 0.4435590517 2.6906586838
H -4.6216849209 0.3977145508 2.0212502466
H -1.929961356 -1.9348899101 0.4209552656
H 0.4410008344 -2.5272800773 0.2104035079
H 2.775001237 -1.8538205668 -0.0069796447
H 3.7998484379 2.2917039423 -0.1629126914
H 1.4122384708 2.9047310221 0.051755195
H -0.9383210076 2.2152977629 0.2797894398
H 5.0386118172 -1.8566019287 0.6832579041
H 6.3551997379 -1.2329204605 -0.3450292546
H 4.8759391068 -1.8849802483 -1.0976112633
H -4.2664067189 0.2289047893 -2.443830152
*
