! pbe def2-sv(p) def2/J RI DEFGRID1 loosescf d4 GCP(DFT/SV(P)) printgap
%output
    printlevel normal
end
* xyz 0 1
C -4.537149315 -1.0399567613 0.3456390585
C -3.8429407351 -2.2209232141 0.1213411045
C -2.480143309 -2.1901025256 -0.1085898983
C -1.7853697345 -0.9821960919 -0.1133565954
C -2.4866837601 0.2067709921 0.1149153785
C -3.8615886776 0.1654788873 0.340376467
C -1.7896622165 1.4984852584 0.1191222658
O -2.3963554285 2.5551960834 0.2864994597
C -0.3298128876 1.4665719062 -0.0740782343
C 0.3368535812 2.6757704735 0.0172213585
C 1.7189905146 2.73050619 -0.1406422747
C 2.4276249107 1.5871165314 -0.3903818531
C 1.7927445129 0.3265261153 -0.4982047786
C 0.3735557813 0.2650667878 -0.3306488968
C -0.3326249504 -0.9965751236 -0.3775441002
O 0.2189316439 -2.086111453 -0.6182286514
N 2.4861700329 -0.7798695379 -0.8068057276
C 3.9085461049 -0.9744742412 -0.6913406446
C 4.3051471937 -1.3824490208 0.7412717032
O 4.0888217795 -0.3615032445 1.6878834106
H -5.6007675372 -1.0611187011 0.5235939109
H -4.3654877373 -3.1646580417 0.1245789597
H -1.923252268 -3.097619274 -0.2892582016
H -4.3753664099 1.1000521 0.5108333005
H -0.2406521169 3.5658713123 0.2140699889
H 2.227765772 3.6788502228 -0.0678854722
H 3.4939285325 1.651309683 -0.5212975006
H 1.9259054998 -1.6318493032 -0.8083862145
H 4.4458160058 -0.0731449754 -0.9869995356
H 4.187832888 -1.7834181208 -1.3677696708
H 5.351809551 -1.7068983066 0.7473997118
H 3.6771801178 -2.2167588779 1.0637214629
H 4.7465374339 0.3364408109 1.5638236617
*
