! r2scan-3c def2/J RI DEFGRID2 scfconv6 printgap
%output
    printlevel normal
end
* xyz 0 1
C -3.6424781245 -0.6252924392 0.2423117652
C -2.3368810889 -0.2021484463 -0.4182091774
C -1.1851722 -0.1845996123 0.5830129141
C 0.1089977828 0.2660910475 -0.0413327279
O 0.2312946292 0.6992549008 -1.1671642156
O 1.1208214889 0.1445701043 0.8137775398
C 2.4356654416 0.526929687 0.3753365996
C 3.127050424 -0.6159754558 -0.352239415
H -3.9082478802 0.0653077736 1.0386918941
H -4.4474063676 -0.635415487 -0.4872216728
H -3.5493071718 -1.6219179293 0.6663875708
H -2.4424696188 0.7925966243 -0.8548486709
H -2.0914757425 -0.8867896753 -1.2321802329
H -1.0249353683 -1.1737345293 1.0150795033
H -1.4055031728 0.4970476838 1.4076131189
H 2.3454921102 1.400115483 -0.2779694836
H 2.9633771052 0.7914157381 1.2920269112
H 4.1387926717 -0.3193642255 -0.6086738778
H 3.1605860704 -1.4975513231 0.2821447274
H 2.5873078586 -0.8560659314 -1.2656181004
*
