! r2scan-3c def2/J RI DEFGRID2 scfconv6 printgap
%output
    printlevel normal
end
%cpcm
    smd true
    smdsolvent "water"
end
* xyz 0 1
C 2.4643843349 -0.5714779942 -0.8449569972
C 2.3676117737 0.1617352086 0.4879704968
C 0.939022769 0.3116913796 1.014969901
C 0.0335418866 1.1837425661 0.1345628102
C -0.8282255637 0.3911655319 -0.833297049
Cl -2.0587425513 -0.5843824321 0.0526152216
H 2.0143272694 0.010090438 -1.6449839823
H 1.9648433735 -1.5361036959 -0.7860884682
H 3.5074217583 -0.7442178899 -1.1004893877
H 2.9468119288 -0.3875849743 1.2337280479
H 2.8174229063 1.1520107692 0.3882136481
H 0.9969466813 0.7563770325 2.0100178518
H 0.4875834324 -0.6755774039 1.1291819258
H 0.6447144198 1.8711604923 -0.4530442074
H -0.6243940359 1.7834970294 0.7653093125
H -1.391899038 1.0486428841 -1.4926729008
H -0.2495435767 -0.3220642647 -1.4142964893
*
