! pbe def2-sv(p) def2/J RI DEFGRID1 loosescf d4 GCP(DFT/SV(P)) printgap
%output
    printlevel normal
end
* xyz 0 1
C 2.2715857646 1.109655649 0.2185991146
C 1.2289196907 -0.0117449266 0.2807805939
C 1.7780773066 -1.2669875441 -0.4065434004
N -0.0093137507 0.4803869125 -0.3072700517
C -1.2641997999 0.1330925416 0.3324342842
C -1.6370411694 -1.3560590271 0.2646134661
C -2.3690558925 0.9775452765 -0.3025489836
H 1.8890302391 1.9968302778 0.7142266985
H 3.1926032302 0.8001354447 0.7050232558
H 2.4865078217 1.3597435099 -0.8169586369
H 1.0289473476 -0.2388018596 1.3350816716
H 2.0189000188 -1.0446630133 -1.4445932254
H 1.0540255717 -2.0775204506 -0.385537668
H 2.6840584806 -1.6020980229 0.0921702698
H -0.0435300286 0.2614128686 -1.2965977044
H -1.1655161766 0.4201615596 1.3874221346
H -2.6174529798 -1.5139066154 0.7066517579
H -1.6665095398 -1.6899783435 -0.7712552153
H -0.916902953 -1.962182625 0.8093640331
H -2.5185124364 0.6826787626 -1.3387419006
H -2.0915962194 2.0270314171 -0.2774651755
H -3.3033618622 0.8447749889 0.2354986717
*
