! r2scan-3c def2/J RI DEFGRID2 scfconv6 printgap
%output
    printlevel normal
end
* xyz 0 1
C -3.3772464817 -1.0240543511 0.0692229569
C -1.9516310427 -0.645373209 0.4488295456
C -1.3182833188 0.2677319109 -0.6113809036
C 0.0681125732 0.6516139286 -0.169844005
O 0.3184040336 1.5023579045 0.6591554818
O 0.9938090132 -0.0753700356 -0.7817076965
C 2.3721485302 0.1213351538 -0.4229186035
C 2.7635938933 -0.7676208926 0.7475535786
H -3.3905936045 -1.5473810947 -0.8832692571
H -3.8060052343 -1.6737988192 0.8271770635
H -3.9979839313 -0.1358453924 -0.0153737793
H -1.3457429693 -1.5478710893 0.5506598973
H -1.9468058784 -0.1254017149 1.409157097
H -1.91600644 1.1737043416 -0.7115004801
H -1.2579263147 -0.2519717548 -1.5663370928
H 2.9314996566 -0.1369245356 -1.3225778442
H 2.5192650994 1.1763566033 -0.1724798594
H 2.5658964421 -1.8091657949 0.5090034439
H 3.8208412299 -0.6419806826 0.9567998854
H 2.1931671657 -0.4914078869 1.6316935882
*
