! r2scan-3c def2/J RI DEFGRID2 scfconv6 printgap
%output
    printlevel normal
end
* xyz 0 1
C -3.6817648413 -0.675534611 0.2969874713
C -2.4757831696 0.1468042896 -0.1382696244
C -1.1669245351 -0.5291115055 0.2604510923
C 0.0404499291 0.2513919928 -0.1860969909
O 0.0186413488 1.2645014904 -0.8536293061
O 1.1657836417 -0.3102869459 0.2404623378
C 2.406552253 0.3222313534 -0.1181876748
C 3.5389907028 -0.4767176758 0.496790163
H -3.6862309184 -0.8031909131 1.376536269
H -4.6021383514 -0.1774629914 0.0053661913
H -3.6602328254 -1.6584314243 -0.1669074647
H -2.5169064419 1.1391757676 0.3143862859
H -2.4878475948 0.2863912878 -1.2207273947
H -1.0977282087 -1.5245414982 -0.1834803962
H -1.1045441147 -0.6532327527 1.3430032825
H 2.4756962792 0.3523464584 -1.2105861554
H 2.3879276245 1.3533834825 0.2497910465
H 3.4358260324 -0.4966181292 1.5775700805
H 3.51889812 -1.4965396561 0.1244058094
H 4.4861939995 -0.0171383557 0.2348154129
*
