! r2scan-3c def2/J RI DEFGRID2 scfconv6 printgap
%output
    printlevel normal
end
* xyz 0 1
C -3.2144762912 -1.0568038155 0.0496376285
C -2.7234837401 0.3471041517 0.3836597133
C -1.2120213051 0.4198972849 0.6002042277
C -0.4182681314 0.1287949761 -0.6830153114
C 1.0448882028 0.3317568213 -0.4042683999
O 1.657394991 1.3626571816 -0.5921302757
O 1.5996231049 -0.7561828192 0.1186587023
C 2.9796844873 -0.6858292056 0.4854491661
H -2.8343530609 -1.3860058043 -0.9133211103
H -2.8912453605 -1.763268998 0.8104748895
H -4.3005085362 -1.0720422455 0.0066341888
H -3.0068301727 1.0337326642 -0.4160560217
H -3.212306469 0.6849554189 1.2994933206
H -0.9176379845 -0.2969145735 1.3692534226
H -0.9493392372 1.420776463 0.9510148221
H -0.7241752269 0.8169856585 -1.4703958005
H -0.5766068921 -0.9019700052 -0.9937867773
H 3.2408779389 -1.6793422906 0.8355770137
H 3.1187012071 0.0566118781 1.2720783441
H 3.5810222189 -0.4025573467 -0.3791948235
*
