! r2scan-3c def2/J RI DEFGRID2 scfconv6 printgap
%output
    printlevel normal
end
* xyz 0 1
C -2.7471808647 0.4175779307 1.0712786944
C -2.5212682089 -0.1055299681 -0.3421659052
C -1.2157007562 -0.8962895283 -0.4472231139
C -0.0128870184 -0.0017359568 -0.2866576489
O 0.1096776675 1.0972575783 -0.7854109183
O 0.9142996266 -0.5703528795 0.4761355169
C 2.1507131181 0.1305297878 0.6913538555
C 3.144498554 -0.1540693644 -0.4243744552
H -3.6846053294 0.9642093151 1.1279283027
H -2.7811524204 -0.4039725435 1.7829130724
H -1.9411970739 1.090296143 1.3586666891
H -2.477446725 0.7332250929 -1.0393769569
H -3.3507533042 -0.7512766795 -0.6310679871
H -1.141812514 -1.3508079781 -1.4375335971
H -1.164938702 -1.6835987385 0.3042020245
H 1.937886722 1.2021897156 0.7533105978
H 2.5131220011 -0.2403334462 1.6504977123
H 3.3044849046 -1.2247131423 -0.518642535
H 2.7657154358 0.2325684584 -1.3679527297
H 4.0880646713 0.3316590241 -0.198244314
*
