! r2scan-3c def2/J RI DEFGRID2 scfconv6 printgap
%output
    printlevel normal
end
* xyz 0 1
C -2.309825047 -1.302830964 -0.1872637085
C -1.9070249499 -0.2158643876 0.803443757
C -1.5552572715 1.1143528439 0.1352986652
C -0.3729007226 1.0124939518 -0.8379614905
C 0.8505700061 0.500260713 -0.1262723629
O 1.4296915388 1.0745498986 0.7721123681
O 1.2325175201 -0.6845098957 -0.5928112887
C 2.3797875224 -1.2934718827 0.0038511802
H -1.4640074837 -1.6044719254 -0.7993494834
H -2.6693645982 -2.1790976393 0.3463274195
H -3.1047820735 -0.9462084345 -0.8377152045
H -2.7327889596 -0.0392241407 1.4959394307
H -1.053641424 -0.558244476 1.3948104062
H -1.3020755578 1.8402580154 0.910654568
H -2.4217289175 1.4857452504 -0.413183411
H -0.146752519 2.0078361443 -1.2221335435
H -0.6030093089 0.3458664246 -1.6662605508
H 2.5393515225 -2.2179438897 -0.5418166168
H 2.1907989927 -1.4897468347 1.0600146126
H 3.2415781517 -0.6309314655 -0.084033568
*
