! pbe def2-sv(p) def2/J RI DEFGRID1 loosescf d4 GCP(DFT/SV(P)) printgap
%output
    printlevel normal
end
* xyz 0 1
C -2.3257449468 -1.388714109 0.3921039171
C -2.5131408775 0.050335514 -0.0731977077
C -1.3103743856 0.5413194003 -0.8824350168
C -0.0788627046 0.6552121445 -0.0197390312
O -0.0516342774 1.1472990136 1.0896207576
O 0.985495152 0.1569927634 -0.6337381305
C 2.2602550241 0.1676614521 0.0323300868
C 2.8495714316 -1.2326846808 0.0108500739
H -3.2002475045 -1.7262622184 0.941763724
H -2.173406501 -2.0496359468 -0.4578574028
H -1.4603933299 -1.4635541373 1.0481010417
H -2.6387587156 0.7011902926 0.7940195459
H -3.4080496262 0.1228363431 -0.691557034
H -1.5180643258 1.5381743714 -1.2765154323
H -1.0907881392 -0.1281337675 -1.7134364373
H 2.8946059436 0.8684613431 -0.5165553602
H 2.1148021618 0.5304674566 1.0545188753
H 2.2152382963 -1.9189070324 0.5658264225
H 2.9327325173 -1.5827838518 -1.0139328122
H 3.834804756 -1.2140742425 0.4650936626
*
