! r2scan-3c def2/J RI DEFGRID2 scfconv6 printgap
%output
    printlevel normal
end
* xyz 0 1
C -3.3919295327 0.4993490727 0.6699328019
C -2.7791849996 -0.6158945892 -0.1696586324
C -1.3811277605 -0.28123838 -0.6884027599
C -0.3379767927 -0.202977739 0.4265346985
C 1.0209558134 0.1608926086 -0.1086674959
O 1.2274104079 0.8671453493 -1.0730443554
O 1.9871680454 -0.3804651292 0.6270440334
C 3.3515388215 -0.1148631626 0.2851309543
H -4.4185656601 0.252079492 0.9282344731
H -2.838892089 0.6466919291 1.5936451201
H -3.393693756 1.434426452 0.1143518256
H -2.7350875484 -1.5341001243 0.4190528313
H -3.4246049038 -0.8041502124 -1.0295647143
H -1.399097286 0.672278295 -1.2196622244
H -1.0717332556 -1.0466540347 -1.403306141
H -0.258665411 -1.1448939273 0.9689913582
H -0.6137678173 0.5783177076 1.1379977546
H 3.402813518 0.7253081898 -0.4082436389
H 3.7717332054 -1.0067459506 -0.1780097623
H 3.8715759569 0.1125466718 1.2123789667
*
