! pbe def2-sv(p) def2/J RI DEFGRID1 loosescf d4 GCP(DFT/SV(P)) printgap
%output
    printlevel normal
end
* xyz 0 1
C -2.6225599993 -1.2405762414 -0.366036701
C -2.5751900412 0.2022736565 0.1221743486
C -1.267224886 0.5058190053 0.8554378486
C -0.0892445981 0.4983814785 -0.08482187
O -0.0815874071 0.9726019309 -1.2023980754
O 0.970294518 -0.0815493483 0.4628294527
C 2.1843550027 -0.1280785045 -0.3061490022
C 3.2924201191 -0.6496298984 0.5878682882
H -1.8140433183 -1.427540669 -1.0705039557
H -2.5209499775 -1.9307775564 0.4681387461
H -3.5654964397 -1.4401548427 -0.868119125
H -3.4108578265 0.3885295429 0.7970503654
H -2.6616779127 0.8789939116 -0.7299000238
H -1.0794483215 -0.2145126326 1.6510315503
H -1.3160224005 1.5054968551 1.292638753
H 2.0191919035 -0.781227397 -1.1693401265
H 2.3980105495 0.8796211679 -0.6776405814
H 3.0377963455 -1.6394003859 0.9548015224
H 4.2158631372 -0.7032613063 0.0208626109
H 3.4300523295 0.0138982332 1.4364332598
*
