! r2scan-3c def2/J RI DEFGRID2 scfconv6 printgap
%output
    printlevel normal
end
* xyz 0 1
C -0.0421918327 0.9038657197 0.2836350228
C -0.8640066021 -0.3757684519 0.257816835
Cl -2.4950487907 -0.0541342449 -0.4202141064
C 1.3379926766 0.6683905644 0.8740577923
Cl 2.3130096326 -0.4317635067 -0.1683743347
H 0.0498180911 1.2989838017 -0.7287098088
H -0.5486649936 1.6494808434 0.8984241826
H -0.4065048652 -1.1301090988 -0.3800499265
H -1.0186073859 -0.7736047678 1.2592702913
H 1.282847898 0.1904641237 1.8499389053
H 1.898780725 1.5980898305 0.9365469301
*
