! r2scan-3c def2/J RI DEFGRID2 scfconv6 printgap
%output
    printlevel normal
end
* xyz 0 1
C -3.3809621699 -0.9725920932 0.3876761087
C -1.8997897403 -0.900284652 0.0354919427
C -1.3769001159 0.5282982438 0.1613698826
C 0.0803295492 0.6956794375 -0.1822006115
O 0.6033978907 1.7757358547 -0.3786976825
O 0.73379096 -0.4547474312 -0.2458373897
C 2.1412774222 -0.4276221163 -0.5345204528
C 2.9581171499 -0.2406146673 0.7348968655
H -3.9628377974 -0.3365302472 -0.2749064289
H -3.7423719863 -1.9924972373 0.2900436371
H -3.5467471403 -0.6450509571 1.4109895831
H -1.7468107259 -1.2513001637 -0.9862353704
H -1.3308563075 -1.5534351647 0.6977504571
H -1.4986883745 0.8836237062 1.1883532619
H -1.9416377861 1.2103018891 -0.4777254319
H 2.3440088479 -1.3932377875 -0.9986574112
H 2.3377260955 0.3842810557 -1.2413842383
H 2.7150167799 -1.0175545183 1.4545950857
H 4.0147083775 -0.2927392619 0.4935654805
H 2.7442155539 0.7308938031 1.1750249681
*
