! r2scan-3c def2/J RI DEFGRID2 scfconv6 printgap
%output
    printlevel normal
end
%cpcm
    smd true
    smdsolvent "water"
end
* xyz 0 1
C -2.6429634976 -1.237126594 -0.0336040253
C -2.5244242883 0.2820816752 -0.0163101852
C -1.24190089 0.7386792021 0.685147613
C -0.0225382812 0.3413474859 -0.1071604093
O 0.1380377444 0.560561806 -1.2897304587
O 0.864640663 -0.2923992065 0.650597258
C 2.1030291458 -0.7132125943 0.0544992082
C 3.1442695718 0.3937637531 0.1154666485
H -3.5676806296 -1.5396594666 -0.5175328261
H -1.8108416753 -1.6763857803 -0.5809778126
H -2.6355114106 -1.6329365443 0.9791548176
H -3.3820841357 0.7110431939 0.502320386
H -2.5154388521 0.6610132973 -1.0400326731
H -1.1637726717 0.3090532971 1.683125003
H -1.2374586609 1.8275866086 0.7611417458
H 2.410104454 -1.5800855598 0.640355397
H 1.9098705223 -1.0037101594 -0.982787474
H 4.0852752337 0.0246487175 -0.2790366249
H 2.8200325031 1.243250762 -0.4816600931
H 3.2868462994 0.716806009 1.1430986272
*
