! r2scan-3c def2/J RI DEFGRID2 scfconv6 printgap
%output
    printlevel normal
end
%cpcm
    smd true
    smdsolvent "water"
end
* xyz 0 1
C -2.5710950992 -1.0125167004 -0.6394651183
C -2.0690105875 -0.5546981809 0.7244223255
C -1.367415168 0.8079041062 0.6454879081
C -0.1111104145 0.7192736598 -0.181392852
O 0.063744726 1.275423027 -1.2473251383
O 0.8023415509 -0.0493719207 0.3932350678
C 2.0539002755 -0.2344797122 -0.2876253887
C 3.0285276236 -0.8809779399 0.6777554232
H -3.2920792234 -0.3027867489 -1.0381897413
H -1.7479395111 -1.0879026621 -1.3478266503
H -3.0494342144 -1.9851861353 -0.5615903791
H -1.3698063695 -1.2882519296 1.1281964884
H -2.9113129615 -0.470403906 1.4117683949
H -1.0876002205 1.128742162 1.6490966059
H -2.0233388547 1.5498124547 0.1905935602
H 1.8777125842 -0.8649163867 -1.1654721905
H 2.4076316017 0.7421311667 -0.6345775281
H 3.1785731164 -0.2399747883 1.5415294226
H 2.63886948 -1.8369814977 1.0143826901
H 3.9787621748 -1.0367456831 0.1778102273
*
