! pbe def2-sv(p) def2/J RI DEFGRID1 loosescf d4 GCP(DFT/SV(P)) printgap
%output
    printlevel normal
end
* xyz 0 1
C 2.2251897493 1.0088297684 -0.6563946125
C 1.1785844675 0.3480607259 0.2406505712
C 1.7788631296 -0.8891880218 0.925185866
N 0.0043815076 0.072067146 -0.5728543939
C -1.2012218036 -0.3966189016 0.0989262752
C -2.2043240125 -0.819766877 -0.9733173449
C -1.7969158296 0.7194898854 0.9579109483
H 1.7903507301 1.8669773332 -1.1598135016
H 3.0761480912 1.3373055412 -0.066347298
H 2.5737629028 0.3053696605 -1.4093832067
H 0.8790590729 1.0666518393 1.0107857524
H 2.0503757676 -1.6361735119 0.1808759354
H 1.0705669518 -1.3335139711 1.6208721795
H 2.6710627223 -0.611498284 1.4796351558
H 0.2599800884 -0.5913198758 -1.2983863116
H -1.0036688309 -1.2708133798 0.7499312104
H -1.806771803 -1.6376502788 -1.5705209103
H -3.1319179195 -1.1487890386 -0.5131130769
H -2.4128706242 0.0203722045 -1.6298210878
H -2.7747088589 0.4203719131 1.3254149072
H -1.9014049651 1.6206874372 0.3604832559
H -1.1646094257 0.9384052666 1.8140557337
*
