! r2scan-3c def2/J RI DEFGRID2 scfconv6 printgap
%output
    printlevel normal
end
%cpcm
    smd true
    smdsolvent "water"
end
* xyz 0 1
C -1.7941825447 -1.1940938675 -0.5812003391
C -2.3651301512 -0.0620474851 0.263867486
C -1.3239210624 0.6141750164 1.1554641753
C -0.2596473809 1.3852867452 0.3671704415
C 0.7800343968 0.5142486317 -0.2881288255
O 1.1765712489 0.6631681012 -1.4280377416
O 1.2521727767 -0.4094395918 0.5382537955
C 2.2714264765 -1.2987145871 0.0767567586
H -2.5866884554 -1.6839247309 -1.1418675346
H -1.0631601742 -0.8186359001 -1.2943786124
H -1.3110688455 -1.935533855 0.0514847547
H -2.8175268962 0.6847339403 -0.3920957324
H -3.1539707578 -0.4638429881 0.9030015112
H -0.8335059508 -0.1318421046 1.7816212934
H -1.8365772819 1.3218587501 1.8083845055
H 0.2837190655 2.0397089003 1.0525364482
H -0.7171326221 2.0018313075 -0.4073243017
H 3.1988550524 -1.0527617236 0.592111479
H 2.4002397493 -1.1896661365 -1.0007207958
H 1.9562155201 -2.3092850738 0.3271553867
*
