! r2scan-3c def2/J RI DEFGRID2 scfconv6 printgap
%output
    printlevel normal
end
%cpcm
    smd true
    smdsolvent "water"
end
* xyz 0 1
C -3.3903142784 -1.010175648 0.0610187833
C -1.9698816918 -0.626974563 0.4551275362
C -1.3099267756 0.2445210939 -0.6234585253
C 0.0701976762 0.6372021056 -0.1699550236
O 0.3071076985 1.4805625759 0.6704059384
O 1.0069740117 -0.0720902983 -0.7858983858
C 2.3811382935 0.1352806501 -0.4171897929
C 2.7738629231 -0.7593206577 0.7484849343
H -3.8400037848 -1.6258641353 0.8351144031
H -4.00168792 -0.1214327126 -0.0719680243
H -3.388392873 -1.5711338961 -0.8698853981
H -1.3724719626 -1.5291035261 0.6007901269
H -1.9797528149 -0.0734466273 1.3963130977
H -1.9001793642 1.1499563629 -0.7656915949
H -1.2344861265 -0.3061746693 -1.559793147
H 2.9483108988 -0.110253362 -1.3154613873
H 2.5163738618 1.1895480132 -0.1572956972
H 2.5926373096 -1.8010989331 0.4986989482
H 3.8272384866 -0.6210946529 0.968960025
H 2.1916379057 -0.4990733981 1.6297023381
*
