! pbe def2-sv(p) def2/J RI DEFGRID1 loosescf d4 GCP(DFT/SV(P)) printgap
%output
    printlevel normal
end
* xyz 0 1
C -3.2857629521 -0.8593839483 -0.3342253046
C -1.8827079859 -0.6243279235 0.2121993338
C -1.5026312703 0.8542768364 0.1679128352
C -0.1130616025 1.1053503399 0.7620186024
C 0.9530837522 0.4579974583 -0.0832113373
O 1.1064137832 0.6477285664 -1.2719320329
O 1.7121325079 -0.3590962425 0.6373533454
C 2.7864223882 -1.0586664822 0.0007336421
H -3.5380955148 -1.9158719079 -0.2962685321
H -4.0178542284 -0.308140231 0.2509103365
H -3.3509756296 -0.5267344269 -1.3675788697
H -1.828353235 -0.9812745525 1.2428650789
H -1.1621342484 -1.1977846583 -0.3768093046
H -2.2364918681 1.4350202873 0.7278814171
H -1.5084328318 1.2003278666 -0.8677241483
H -0.0421529808 0.7116324156 1.7751679636
H 0.0852823628 2.1782888418 0.7745138537
H 2.7340192395 -0.9134030032 -1.0788761355
H 2.6816432785 -2.111028957 0.2549692124
H 3.7247042529 -0.666107654 0.389429422
*
