! r2scan-3c def2/J RI DEFGRID2 scfconv6 printgap
%output
    printlevel normal
end
* xyz 0 1
C 2.1877856953 1.1136091239 -0.5478402096
C 1.1984666495 0.2902302242 0.2728084121
C 1.8495688875 -1.0218795921 0.7160743642
N 0.0265934287 -0.0027561262 -0.5441036277
C -1.2055297641 -0.3164137839 0.1638126204
C -2.1497590256 -1.0255305981 -0.8069162224
C -1.8961386258 0.9134931236 0.7700857572
H 1.7549810402 2.0734943803 -0.8228670575
H 3.0925897434 1.2958485307 0.0255487026
H 2.4487805464 0.5747973289 -1.45492479
H 0.9310345043 0.8683264956 1.177903677
H 2.1267620492 -1.6032403282 -0.1584673171
H 1.1632764846 -1.6114096001 1.3176780113
H 2.7383858903 -0.8180417211 1.3069992632
H -0.1492171403 0.7634030711 -1.1861164229
H -0.9486481927 -1.0099852316 0.971977823
H -3.0512622996 -1.3461913509 -0.2923433122
H -2.4282986428 -0.3540422234 -1.6156388907
H -1.6559703731 -1.8932008363 -1.2336187502
H -1.2317044645 1.4327368903 1.4579061005
H -2.7864369552 0.6144781694 1.3165671491
H -2.1878621421 1.6053606535 -0.0183119466
*
