! r2scan-3c def2/J RI DEFGRID2 scfconv6 printgap
%output
    printlevel normal
end
%cpcm
    smd true
    smdsolvent "water"
end
* xyz 0 1
C -3.5417014645 -0.8125260094 0.057184455
C -2.1585286858 -0.3718755536 0.51771635
C -1.2284186478 -0.1163703637 -0.6722366294
C 0.0934731774 0.4411542063 -0.2138341891
O 0.2236605266 1.378233155 0.5461404132
O 1.1136263016 -0.2154483985 -0.7525214726
C 2.449928436 0.1891977598 -0.4079880375
C 2.9170054204 -0.4947302084 0.8677457755
H -3.4741344368 -1.7251355312 -0.5294982628
H -4.1806172923 -1.0004184735 0.9156034549
H -4.0038212701 -0.0418303626 -0.5544148431
H -1.7208841676 -1.1417442905 1.1562803765
H -2.2317487446 0.5452772641 1.1053637726
H -1.6868294419 0.6252719704 -1.3300799338
H -1.0479527857 -1.0294756612 -1.2380454324
H 3.0561970372 -0.1084506346 -1.2639121018
H 2.4649701879 1.2768660257 -0.2895868885
H 2.3012139268 -0.1774976397 1.7064772087
H 2.8437557587 -1.5737290341 0.7621360703
H 3.9485931205 -0.2222458003 1.0650699361
*
