! pbe def2-sv(p) def2/J RI DEFGRID1 loosescf d4 GCP(DFT/SV(P)) printgap
%output
    printlevel normal
end
* xyz 0 1
C -2.0789767162 -1.4335447959 0.5352373774
C -2.0966184234 -0.4311391692 -0.6124319569
C -1.5005104147 0.9167949629 -0.1948506683
C -0.0399068117 0.8075912308 0.1629519334
O 0.4499416601 1.2353548644 1.1885200972
O 0.662372586 0.2113201061 -0.791471931
C 2.0718116857 0.0251627837 -0.5880819688
C 2.3518032393 -1.2295633596 0.225223354
H -2.5081634187 -2.3805522429 0.2192858062
H -1.0596860317 -1.6125474868 0.872008087
H -2.6524790103 -1.0580121896 1.3795826501
H -3.1246706362 -0.269574689 -0.938313431
H -1.5275105475 -0.8245974376 -1.455271969
H -2.0264612627 1.3248047342 0.6686924018
H -1.5795170809 1.6225816187 -1.0236484456
H 2.4843312946 -0.0537929193 -1.5942465466
H 2.4715973525 0.9083043539 -0.0803279592
H 1.9028349289 -2.0956532425 -0.2538569107
H 3.4240549341 -1.3775181212 0.3007746141
H 1.9401134854 -1.1233765707 1.2267644969
*
