! r2scan-3c def2/J RI DEFGRID2 scfconv6 printgap
%output
    printlevel normal
end
%cpcm
    smd true
    smdsolvent "water"
end
* xyz 0 1
C -2.0603629757 0.3901528077 0.7126523183
C -1.4878721988 -0.5937371732 -0.3019012095
C -0.2388444647 -0.042993842 -0.9796049429
N 0.8991852415 0.0433047636 -0.0666324255
O 1.7265909876 0.9070697247 -0.2891491047
O 0.9847417707 -0.7483425668 0.8469845595
H -1.3498077316 0.5728728623 1.5163922152
H -2.299644288 1.3388576587 0.2383454524
H -2.9680136279 -0.0121774772 1.1528014768
H -2.2294510231 -0.7987476582 -1.0730003427
H -1.2411256677 -1.5320192431 0.1963599431
H 0.0757820359 -0.707808876 -1.7898498306
H -0.3938256716 0.9559650352 -1.3912966293
*
