! pbe def2-sv(p) def2/J RI DEFGRID1 loosescf d4 GCP(DFT/SV(P)) printgap
%output
    printlevel normal
end
* xyz 0 1
C -3.4776128718 0.4217783518 -0.032155741
C -2.6070140012 -0.7318000728 0.4522483871
C -1.1916754007 -0.7035471413 -0.1247298166
C -0.3752635668 0.4992741577 0.3729107507
C 1.0148375447 0.4084319428 -0.1938598751
O 1.3547498989 0.8529725618 -1.2712837403
O 1.8245741018 -0.2586526288 0.6189753324
C 3.1791620231 -0.4924325081 0.2206157596
H -4.4971933882 0.2951355859 0.3227690993
H -3.1080799548 1.3745922511 0.3365661462
H -3.494177764 0.4549403817 -1.1191224254
H -2.552030481 -0.7152055462 1.5420789796
H -3.0725610026 -1.6739613563 0.1566710948
H -1.2394296561 -0.6720332455 -1.2154049359
H -0.6720783755 -1.6195573717 0.1645076054
H -0.3204225554 0.4826078508 1.4604815943
H -0.8281282682 1.4267044555 0.0267680528
H 3.3423997849 -1.5683207574 0.222460181
H 3.8280874642 -0.0096111088 0.9489026896
H 3.3483617779 -0.0797239691 -0.7745040174
*
