! pbe def2-sv(p) def2/J RI DEFGRID1 loosescf d4 GCP(DFT/SV(P)) printgap
%output
    printlevel normal
end
* xyz 0 1
C 2.7154853797 -1.0326068545 -0.3352341399
C 2.3669841082 0.1980968251 0.4962811648
C 1.4179989576 1.1683100796 -0.2209951652
C -0.056834424 1.01262243 0.1638387336
C -0.6336979066 -0.3285006598 -0.2515105436
Cl -2.4048326394 -0.3765551173 0.0731464609
H 3.3861828968 -1.6835914832 0.2208695665
H 3.2154369644 -0.7362577706 -1.2546221713
H 1.8277230886 -1.600317254 -0.5980984826
H 1.9233191087 -0.1122564645 1.4437577859
H 3.2967818689 0.7196425667 0.731297298
H 1.5242298376 1.0482224579 -1.3001592247
H 1.7027813797 2.1925083895 0.0238464048
H -0.6294350394 1.805697706 -0.3213246221
H -0.1676830821 1.1344576078 1.2428974376
H -0.5171808414 -0.5016876407 -1.3200306112
H -0.2080646166 -1.1514765639 0.3177971442
*
