! r2scan-3c def2/J RI DEFGRID2 scfconv6 printgap
%output
    printlevel normal
end
* xyz 0 1
C -4.461765187 -1.1624457397 -0.4856444405
C -3.6994767896 -2.3083511503 -0.3048499433
C -2.3434628856 -2.2060577484 -0.0558430606
C -1.7235263098 -0.9600823038 0.0126375678
C -2.4935926796 0.1936025777 -0.1708151157
C -3.8608738914 0.0799645629 -0.4170870442
C -1.8775090281 1.5238882807 -0.1036017392
O -2.545425748 2.5486318006 -0.2304242045
C -0.4209974813 1.572126183 0.1135231012
C 0.1657814136 2.8255377235 0.1183218995
C 1.5364686577 2.9595783886 0.3226407827
C 2.3157482098 1.850716449 0.5102479469
C 1.7660554273 0.5443447393 0.4974254813
C 0.3543147554 0.4037323424 0.3049741255
C -0.2740817079 -0.8992676388 0.2898894279
O 0.3388843506 -1.9623556069 0.496463361
N 2.5286153334 -0.5356380826 0.6974684869
C 3.9644632886 -0.640698912 0.6905916964
C 4.4121557008 -1.7204982135 -0.3071693479
O 4.1090047399 -1.3946223887 -1.6438213298
H -5.5201054299 -1.2395371863 -0.6788917079
H -4.1635240663 -3.2807556544 -0.3574078253
H -1.7341438203 -3.0856986029 0.0901184079
H -4.4287435865 0.9886946697 -0.5519370986
H -0.4654898199 3.6877232264 -0.0317383047
H 1.9803325373 3.9425411215 0.3397130153
H 3.3694141347 1.9782368628 0.6929356476
H 2.023912169 -1.421552441 0.6810714358
H 4.3148761432 -0.9276756467 1.6873422245
H 4.4178160634 0.311326146 0.4164010479
H 3.8767911065 -2.6516834148 -0.1072330959
H 5.4870898992 -1.8995647706 -0.1846656684
H 4.6336160977 -0.6287786162 -1.9159456608
*
