! r2scan-3c def2/J RI DEFGRID2 scfconv6 printgap
%output
    printlevel normal
end
%cpcm
    smd true
    smdsolvent "water"
end
* xyz 0 1
C -3.8673897145 -0.6955924733 -0.1505559482
C -2.5082941913 -0.304009587 0.4156321861
C -1.9009331004 0.8711925939 -0.3456619563
C -0.577116152 1.3352180206 0.2218297803
I 1.0150565822 -0.1340085584 -0.0154809665
H -4.5648321978 0.1360372916 -0.0810189346
H -3.7767698232 -0.9818071836 -1.1958306812
H -4.2789061269 -1.5367169576 0.4008411891
H -1.8344234057 -1.1620792488 0.3575530565
H -2.6155162392 -0.0360484943 1.4695712283
H -1.7855312846 0.6049196271 -1.3987119183
H -2.5855257948 1.7229868972 -0.292794132
H -0.6416473888 1.5188798022 1.291045465
H -0.2151513057 2.2256677024 -0.2846091247
*
