! r2scan-3c def2/J RI DEFGRID2 scfconv6 printgap
%output
    printlevel normal
end
%cpcm
    smd true
    smdsolvent "water"
end
* xyz 0 1
C -3.3442929267 -1.0368278461 0.3229430207
C -1.8312644454 -0.9202783396 0.1807346889
C -1.4115247984 0.5323073662 -0.0278760006
C 0.0725919386 0.7414866158 -0.1820467083
O 0.6030832782 1.835019754 -0.1410675338
O 0.7361382761 -0.3853028804 -0.3921594658
C 2.1618290367 -0.3219613593 -0.5613129501
C 2.8758991078 -0.4341244104 0.7768727387
H -3.6947986909 -0.4531169533 1.1706203327
H -3.8413360511 -0.6734638666 -0.5731027901
H -3.6294902261 -2.0736500736 0.4779111127
H -1.4930724194 -1.5194229794 -0.6652572213
H -1.3468022424 -1.3102776274 1.0770590685
H -1.7432207418 1.1588095383 0.8028757642
H -1.8788924485 0.9334084257 -0.9314168265
H 2.4001068504 -1.1659015145 -1.2095477924
H 2.4140749012 0.6213743613 -1.0551908475
H 3.9482719533 -0.4485226686 0.6119920366
H 2.6265890903 0.4185498936 1.4045465884
H 2.5781355519 -1.3474859987 1.2845221073
*
