! pbe def2-sv(p) def2/J RI DEFGRID1 loosescf d4 GCP(DFT/SV(P)) printgap
%output
    printlevel normal
end
* xyz 0 1
C -2.6273307883 -0.9697151696 -0.6190304138
C -2.0884529985 -0.5308998338 0.7370991525
C -1.3426565384 0.8071565599 0.6473457865
C -0.1023063413 0.676315298 -0.1987560121
O 0.0755752068 1.2330517575 -1.2638128983
O 0.7861981066 -0.1297435632 0.3629129713
C 2.0318511835 -0.3679334211 -0.3125469676
C 3.097657568 -0.6538592674 0.7292988307
H -3.328832947 -0.2346287175 -1.0064803627
H -1.8182035482 -1.073734981 -1.3398913312
H -3.1385701131 -1.9248799538 -0.5337039867
H -1.4078128538 -1.2880359514 1.1290054634
H -2.9163783973 -0.419343352 1.4378796001
H -1.0368071821 1.117958823 1.6465345108
H -1.9798361311 1.5712618872 0.2026252796
H 1.8915552803 -1.2227935142 -0.9816167301
H 2.2741106745 0.5127187768 -0.9162869035
H 3.2211037833 0.2032554225 1.3851867057
H 2.8097872237 -1.5137101476 1.3267744313
H 4.0392131594 -0.8611279448 0.231693993
*
