! r2scan-3c def2/J RI DEFGRID2 scfconv6 printgap
%output
    printlevel normal
end
* xyz 0 1
C -2.7525632332 -0.2813966553 -0.7985098558
C -1.880728712 -0.8001419805 0.3397811104
C -1.2514287093 0.3163037486 1.1745919012
C -0.3152950085 1.2266593986 0.3680495859
C 0.7853487213 0.4329655197 -0.2857695638
O 0.9400388723 0.3198333933 -1.484638306
O 1.573662419 -0.1368830142 0.6169691591
C 2.6656231992 -0.949040142 0.1777431009
H -3.2782145311 -1.1058846716 -1.2737347805
H -3.4883190075 0.4260097379 -0.4235329557
H -2.1464726657 0.2096383553 -1.5559539737
H -2.4886809804 -1.4200325504 1.0019981908
H -1.0927315391 -1.4341172912 -0.0748506741
H -0.6828504925 -0.1300731599 1.9919480864
H -2.0417677141 0.9334538752 1.603971087
H 0.1437969864 1.9489301292 1.0435831475
H -0.8616810854 1.7573382115 -0.409771487
H 2.5616886824 -1.9224951844 0.6528493292
H 3.5900257887 -0.4699047296 0.4957297238
H 2.6426844341 -1.0457586559 -0.9083566843
*
