! pbe def2-sv(p) def2/J RI DEFGRID1 loosescf d4 GCP(DFT/SV(P)) printgap
%output
    printlevel normal
end
* xyz 0 1
C -2.3521287039 -1.3923851755 -0.2795741674
C -2.5323660141 0.0819636193 0.060996518
C -1.3201082672 0.6391695066 0.8149894852
C -0.1011902274 0.6518474704 -0.0708583317
O -0.0338613686 1.1934558787 -1.1558045034
O 0.9107368998 -0.0092086833 0.4724817709
C 2.1435374147 -0.0778892142 -0.2639679717
C 3.093635458 -0.9895352912 0.4878732523
H -1.4934726872 -1.5286615041 -0.9345433972
H -2.1920836277 -1.9765716676 0.623415085
H -3.2332274466 -1.7741010757 -0.7883190551
H -3.420288104 0.2095381955 0.6805617487
H -2.6667576658 0.6576743946 -0.8567474782
H -1.1010675875 0.0427064368 1.699651014
H -1.5206959593 1.670034655 1.111258073
H 1.9258893908 -0.4535495128 -1.2693768062
H 2.5441745576 0.9365982371 -0.3597748945
H 4.033473923 -1.0518213378 -0.0505497587
H 3.2750344689 -0.5960169899 1.483545634
H 2.6640981555 -1.9829778061 0.5767487344
*
