! r2scan-3c def2/J RI DEFGRID2 scfconv6 printgap
%output
    printlevel normal
end
* xyz 0 1
C -3.4519679889 -0.9071651612 0.3797015217
C -2.1124229036 -0.2211714113 0.6148590903
C -1.2698910285 -0.1956831189 -0.6693296651
C 0.027789109 0.51635094 -0.3977691822
O 0.2224110122 1.6991261126 -0.5953821792
O 0.9286821696 -0.3031058245 0.1224936097
C 2.2255886675 0.2070872071 0.4779530391
C 3.285066525 -0.7876150743 0.0372000335
H -4.0327887569 -0.9179235487 1.2978892866
H -4.0208810243 -0.380957361 -0.3824403424
H -3.3017333301 -1.9326659619 0.0527667565
H -1.5576379901 -0.7497907332 1.3921043796
H -2.2756881632 0.8043787887 0.9528706085
H -1.8051720989 0.3412736322 -1.4518411336
H -1.0580891389 -1.2155714534 -0.9875599484
H 2.3575114494 1.182585322 -0.0004484255
H 2.234593553 0.3360955081 1.5640108545
H 3.2671969865 -0.9044785106 -1.0428823128
H 4.2625799313 -0.4268758984 0.3398418809
H 3.0999720555 -1.7535491086 0.497741743
*
