! r2scan-3c def2/J RI DEFGRID2 scfconv6 printgap
%output
    printlevel normal
end
%cpcm
    smd true
    smdsolvent "water"
end
* xyz 0 1
C 1.7025711583 -1.2251443053 -0.752426394
C 1.5361453639 -0.0171898186 0.1539308708
C 1.7248406269 1.2981909963 -0.582877439
S -0.0055059141 -0.0712522431 1.1734735396
C -1.5375928673 -0.0013513552 0.1407284686
C -1.6974224608 1.3084156196 -0.6123982839
C -1.7172779254 -1.2168694514 -0.7531542399
H 1.0784184863 -1.1392362303 -1.6376789382
H 2.7401215969 -1.2929891603 -1.0737009829
H 1.4425649314 -2.1389655724 -0.224054512
H 2.2686977533 -0.0780786661 0.9663146799
H 2.7640429824 1.3906458239 -0.8924697116
H 1.4792612539 2.1373484889 0.0631815071
H 1.1010244295 1.3424702095 -1.4713850617
H -2.2778003906 -0.0405672096 0.9474968294
H -1.4482424123 2.1510189611 0.0277761391
H -1.0614237539 1.3337366583 -1.4929470277
H -2.7309875754 1.4123499668 -0.9367713409
H -1.4765300588 -2.1285994128 -0.2121574671
H -1.0849227089 -1.1519114812 -1.6342856736
H -2.7533187344 -1.2712573794 -1.0816939765
*
