! pbe def2-sv(p) def2/J RI DEFGRID1 loosescf d4 GCP(DFT/SV(P)) printgap
%output
    printlevel normal
end
* xyz 0 1
C 0.8725195751 -1.820782049 0.7642949926
O 0.7017679224 -1.2418030271 -0.5374004352
C 0.179097319 0.0336391261 -0.6327288849
O 0.7408898875 0.8563748468 0.3359006132
C 0.6321634142 2.2461960482 0.0490587307
O -1.2148999814 0.1018961503 -0.6375492506
C -1.8915212506 -0.200175231 0.5870154024
H 1.6233153016 -2.5940633115 0.6222500929
H -0.0576933828 -2.2665690145 1.1186402721
H 1.2316207652 -1.0736561171 1.4701763797
H 0.4466933334 0.370991483 -1.6503003682
H -0.413629444 2.5309935776 -0.0836545188
H 1.195814628 2.4883072526 -0.8552869993
H 1.0587709337 2.7513118865 0.9108072412
H -1.3101892864 0.1473995751 1.4420759899
H -2.0770291974 -1.273017801 0.6623580314
H -2.8374813147 0.3340778164 0.5341361811
*
