! r2scan-3c def2/J RI DEFGRID2 scfconv6 printgap
%output
    printlevel normal
end
* xyz 0 1
C -2.8123602741 -1.1230924191 -0.1092486752
C -2.5220692472 0.3717773945 -0.0475620423
C -1.2200800897 0.663329236 0.6985393233
C -0.0095032342 0.2045222741 -0.074119327
O 0.0942585597 0.2110440232 -1.2823975197
O 0.9540193302 -0.2063980652 0.7442038817
C 2.2068921103 -0.6215841707 0.1747259466
C 3.1323681503 0.5660781724 -0.0407627453
H -2.0162368278 -1.6400151049 -0.6414969811
H -2.8874526501 -1.5407966384 0.8919918058
H -3.7471592788 -1.3063813509 -0.6320347462
H -3.3417369289 0.8833451401 0.4574671786
H -2.4398043156 0.7681106236 -1.061220026
H -1.204758733 0.1871571017 1.6786743946
H -1.1083143632 1.7410051012 0.8392765616
H 2.62042445 -1.3208258758 0.9019334393
H 2.0075160844 -1.1313969669 -0.772817965
H 3.2803240655 1.0995977875 0.8941989253
H 4.0903067313 0.2135123446 -0.4086666375
H 2.7017345304 1.2456463444 -0.7728757139
*
