! r2scan-3c def2/J RI DEFGRID2 scfconv6 printgap
%output
    printlevel normal
end
%cpcm
    smd true
    smdsolvent "water"
end
* xyz 0 1
C 0.0485935869 1.5169852141 -0.2680800453
C -1.3231032224 0.9923841101 0.1255753065
Cl -1.5771017946 -0.7218100154 -0.3847571463
C 1.1963657014 0.9936302691 0.5807106863
Cl 1.6107316695 -0.7221580708 0.1962474206
H 0.2386819857 1.3039289277 -1.3203119435
H 0.0245642586 2.6008183698 -0.1378001045
H -1.4645329839 1.0096675267 1.2043688818
H -2.1085430869 1.5595466229 -0.3684853946
H 0.9526637847 1.0142349371 1.6410353942
H 2.1054531301 1.5592674221 0.3900533932
*
