! r2scan-3c def2/J RI DEFGRID2 scfconv6 printgap
%output
    printlevel normal
end
* xyz 0 1
C -3.5342841486 -0.307803527 -1.8181431588
C -3.1380453301 -0.5368545798 -0.3597298169
H -3.5698982326 -1.4686959505 0.0132763921
C -1.6317650287 -0.5925439013 -0.1952784718
C -1.0172126012 -1.7867574245 0.2221304482
C 0.3408594008 -1.8655103882 0.3562290867
C 1.1616645143 -0.7514417031 0.0864131892
C 2.5648062137 -0.8122529968 0.2191689325
C 3.3351906362 0.2915795428 -0.0477334934
C 2.7193898716 1.4984381651 -0.4568898741
C 1.3668261592 1.5769593693 -0.5907682296
C 0.5460405517 0.4578716635 -0.3256271527
C -0.8539682586 0.5074378702 -0.4569868144
O 4.6942378479 0.3487293497 0.0451230829
C 5.3925790797 -0.8145127334 0.4456607227
C -3.6247322428 0.5859754438 0.5289543715
O -3.724527616 1.7472402325 0.1979082369
O -3.8981593774 0.165908072 1.7545342685
H -3.0664525072 -1.0580489952 -2.4490041048
H -4.6137801175 -0.3704542915 -1.9297677402
H -3.2123246379 0.6784282262 -2.1413896369
H -1.6324859199 -2.6483796722 0.4337191342
H 0.8032395293 -2.788509093 0.6733594937
H 3.0035422743 -1.7457902008 0.5339529617
H 3.3598859917 2.3429875257 -0.6563635755
H 0.901586594 2.4998253745 -0.9033700683
H -1.3133806928 1.4376677967 -0.7604740447
H 5.0956072189 -1.124907332 1.4507943993
H 6.4432560067 -0.5337798438 0.4437042078
H 5.2284307395 -1.6339398791 -0.2589001096
H -4.1676344037 0.8895767088 2.3533904244
*
