! r2scan-3c def2/J RI DEFGRID2 scfconv6 printgap
%output
    printlevel normal
end
* xyz 0 1
C -3.6426985647 -0.7312124516 0.2358486321
C -2.3886752645 0.1287102119 0.3225961523
C -1.1748545864 -0.5920874499 -0.265288695
C 0.0411449581 0.2959438784 -0.2988464261
O 0.0284376709 1.4914018858 -0.5100056934
O 1.1523095155 -0.392082815 -0.0745523992
C 2.4073507109 0.311002578 -0.0878067628
C 3.4296155362 -0.5252521004 0.6581681232
H -4.4887976601 -0.2061333034 0.6702591526
H -3.8760706729 -0.9628627146 -0.80023936
H -3.5016906204 -1.6643546436 0.7753646111
H -2.1856871609 0.3808080595 1.3652211702
H -2.5348092006 1.0650883662 -0.2189629512
H -1.3899736551 -0.8786585338 -1.2979252221
H -0.9322066248 -1.494298839 0.2954711287
H 2.6991531258 0.4639706651 -1.1316272315
H 2.2599659712 1.2912347359 0.3771330386
H 3.1167942307 -0.6672383045 1.6885412085
H 3.5283851972 -1.4975519847 0.1849246345
H 4.3887442727 -0.0183750582 0.6420085677
*
