! pbe def2-sv(p) def2/J RI DEFGRID1 loosescf d4 GCP(DFT/SV(P)) printgap
%output
    printlevel normal
end
* xyz 0 1
C 2.3920831165 0.6160341211 0.6126824695
C 1.1337992294 -0.1344558063 0.1734972326
C 1.2995770474 -0.601620849 -1.2728391898
N 0.0043270657 0.7817926218 0.3146007193
C -1.3677392935 0.2766668773 0.2738475134
C -1.6146641305 -1.0118865869 1.071045532
C -1.8717545155 0.1220834873 -1.1637238378
H 2.3153209623 0.9245182616 1.6534870598
H 3.2664834934 -0.0205142704 0.5082719918
H 2.5237575699 1.5012752987 -0.0035006238
H 1.0262110905 -1.0251124931 0.8201859016
H 1.2257309295 0.2501050699 -1.942342564
H 0.5417306352 -1.3291982083 -1.5447612382
H 2.2737827629 -1.0674720994 -1.3981701579
H 0.1297014288 1.2852484067 1.1854507035
H -1.9656845663 1.0735111195 0.7346335568
H -1.1253874226 -1.8607317049 0.5989663779
H -1.2410270347 -0.913015942 2.0888616982
H -2.681544325 -1.2133646225 1.1132021995
H -1.5541647833 0.9747727701 -1.7558811862
H -2.9580068883 0.0776048721 -1.1647287779
H -1.4950402488 -0.7849453104 -1.6251702679
*
