! r2scan-3c def2/J RI DEFGRID2 scfconv6 printgap
%output
    printlevel normal
end
* xyz 0 1
C -0.0003294203 1.3105029307 0.000690882
C -0.9330406498 0.4728026063 -0.8564613162
Cl -2.0864233121 -0.461295533 0.163340204
C 0.9324837111 0.471524234 0.8565907704
Cl 2.086776506 -0.4608202767 -0.1636982721
H 0.5843659958 1.9473014676 -0.6645950431
H -0.5852485142 1.9459557268 0.667065356
H -1.5415310006 1.0982449175 -1.5055051213
H -0.3809066571 -0.2598042965 -1.4427903903
H 0.3809284236 -0.2621639779 1.4418968207
H 1.5405305928 1.0958224227 1.5067477154
*
