! r2scan-3c def2/J RI DEFGRID2 scfconv6 printgap
%output
    printlevel normal
end
%cpcm
    smd true
    smdsolvent "water"
end
* xyz 0 1
C -2.5190021486 -1.2740729658 0.4760655125
C -2.5499570248 0.1165845971 -0.1465373228
C -1.2701063877 0.4134643595 -0.9285941631
C -0.076310298 0.5697173413 -0.0206197589
O -0.1011580854 1.0646001745 1.0872199829
O 1.0265827749 0.1124960322 -0.5992602594
C 2.2796267919 0.1967254995 0.1019474683
C 3.0271718337 -1.1155280326 -0.0584617823
H -3.4437207617 -1.4696783083 1.0121864885
H -2.3953874318 -2.0348754722 -0.291048921
H -1.6928347533 -1.3533658052 1.1799286312
H -2.6593847444 0.8651488674 0.6402659087
H -3.4030511961 0.1972495668 -0.8205663657
H -1.3777314362 1.3585269229 -1.46596543
H -1.0528577018 -0.370780004 -1.6533149117
H 2.8397961628 1.0246714227 -0.341757991
H 2.0747966449 0.4231394055 1.1530061172
H 2.4657875097 -1.9285142697 0.3937795283
H 3.1706743259 -1.3323215721 -1.1129125478
H 3.9944822645 -1.0379947169 0.4270225268
*
