! pbe def2-sv(p) def2/J RI DEFGRID1 loosescf d4 GCP(DFT/SV(P)) printgap
%output
    printlevel normal
end
* xyz 0 1
C -3.3678618075 -0.9886748053 0.3850741534
C -1.8709612843 -0.7467968818 0.5404410026
C -1.3931389255 0.3499438039 -0.4068454845
C 0.0774507277 0.6643905576 -0.3159885631
O 0.60593479 1.5763099149 -0.9228362751
O 0.7342408285 -0.1495522448 0.4965895619
C 2.1506336098 0.0353227835 0.6537580853
C 2.9243607143 -0.7218298381 -0.4147459162
H -3.6960323125 -1.7700681766 1.0648403762
H -3.9266011475 -0.0827413795 0.6069676163
H -3.6018808965 -1.296001027 -0.6311899959
H -1.3253639926 -1.6677602696 0.3321638488
H -1.6492130393 -0.4574748351 1.5686495915
H -1.9323091731 1.2824931044 -0.2243196363
H -1.5930119249 0.0710108932 -1.4447275716
H 2.3714022208 1.1058974124 0.6026417219
H 2.3684178028 -0.3507348201 1.6500241829
H 2.6940170154 -0.3171526929 -1.3978313203
H 3.9884663671 -0.6157278346 -0.2309595516
H 2.6593592869 -1.7753885696 -0.3936164321
*
