! r2scan-3c def2/J RI DEFGRID2 scfconv6 printgap
%output
    printlevel normal
end
%cpcm
    smd true
    smdsolvent "water"
end
* xyz 0 1
C -2.4741546707 -0.9788249744 0.9426815428
C -2.5534920238 0.0786829333 -0.1516322461
C -1.290058243 0.0888501883 -1.0182327073
C -0.0949125611 0.5375040287 -0.2171801127
O -0.0324555342 1.5691938415 0.4205673914
O 0.9006563436 -0.3340794323 -0.2907704314
C 2.1227841288 -0.03657145 0.4057487713
C 3.2304501253 -0.8839956832 -0.1905114204
H -1.6411042199 -0.7705272225 1.6116900844
H -3.3889546208 -0.9866469095 1.5291126663
H -2.3300829596 -1.9662228167 0.5107175572
H -2.6746165879 1.0654574382 0.2992548317
H -3.415885424 -0.1169222745 -0.78920933
H -1.4184533236 0.7982371612 -1.8375067494
H -1.0847603044 -0.9005621664 -1.4248793044
H 2.3263700053 1.0347765721 0.3072935726
H 1.9723842915 -0.262255444 1.4664245254
H 4.1574646758 -0.6861891718 0.3373689371
H 2.9813751536 -1.936833114 -0.0978946905
H 3.3589660818 -0.6455555134 -1.2423046575
*
