! r2scan-3c def2/J RI DEFGRID2 scfconv6 printgap
%output
    printlevel normal
end
%cpcm
    smd true
    smdsolvent "water"
end
* xyz 0 1
C -3.5211836201 -0.6818708592 0.4633467784
C -2.1647955244 0.0028989402 0.5708793259
C -1.2266523298 -0.4442848284 -0.5603906468
C 0.0948268411 0.260597559 -0.4155752576
O 0.3921959905 1.2979320513 -0.9714545826
O 0.8874117636 -0.3687031622 0.4424405604
C 2.1775050202 0.1965016382 0.7290399046
C 3.2190149822 -0.2819245168 -0.2709328389
H -4.1716422175 -0.3515243539 1.2684824089
H -3.995429848 -0.4410678612 -0.4845158089
H -3.4086447002 -1.7607905962 0.5295639503
H -1.7034417653 -0.239293837 1.5300989825
H -2.2912942352 1.0864574425 0.5197491001
H -1.6596678955 -0.1824638491 -1.5253695412
H -1.0658632393 -1.5197404717 -0.4975492264
H 2.0936274796 1.2872789951 0.7061919564
H 2.409804901 -0.1457630468 1.7380018389
H 2.9712319256 0.0777195737 -1.267181843
H 4.192790018 0.1046808033 0.0112386985
H 3.2532873883 -1.3679096866 -0.2846191177
*
