! r2scan-3c def2/J RI DEFGRID2 scfconv6 printgap
%output
    printlevel normal
end
* xyz 0 1
C 2.9167989863 -0.0334854022 -0.6708445629
C 1.882675761 -0.6995382542 0.2303059702
C 0.9636456031 0.2966842437 0.9399577987
C 0.1174743509 1.1705830591 0.0116910919
C -0.8666105655 0.3960614628 -0.8462468468
Cl -2.0859665624 -0.4601703627 0.1662409585
H 3.4794524774 0.7127928662 -0.1146590263
H 2.4447424977 0.450965575 -1.5212371979
H 3.6149083987 -0.7754806434 -1.0508844788
H 1.288367457 -1.4049547653 -0.3527853445
H 2.4032879442 -1.2773416329 0.9974665053
H 1.5745198867 0.955425504 1.5605166004
H 0.2958548891 -0.2565033744 1.6040300086
H 0.7663380911 1.7309425125 -0.6625512075
H -0.4336545717 1.890203194 0.6198909786
H -1.4340476475 1.0625064149 -1.4930152749
H -0.3765835079 -0.371693659 -1.4405423886
*
