! r2scan-3c def2/J RI DEFGRID2 scfconv6 printgap
%output
    printlevel normal
end
* xyz 0 1
C 2.3857691735 0.6226955983 0.6244492277
C 1.1331168312 -0.132811583 0.17300592
C 1.3364936982 -0.6525845862 -1.2587239738
N 0.0036875559 0.7620310354 0.3628130227
C -1.3729316405 0.2900725818 0.2785650181
C -1.5827054302 -0.9971036782 1.071631641
C -1.9260537952 0.1376055774 -1.1480595325
H 2.2348993008 1.0248316922 1.6217642301
H 3.2455392125 -0.0412907555 0.6368857034
H 2.5922978647 1.4476991732 -0.0538531391
H 0.9891509752 -0.9865515627 0.8421466179
H 1.3277166044 0.1752892377 -1.9656460546
H 0.5596755679 -1.3584664813 -1.5395537008
H 2.2952363709 -1.1599268557 -1.3336240314
H 0.1139280842 1.5757864314 -0.2329889491
H -1.9592237174 1.0835997269 0.7664464756
H -1.1275422431 -1.8458853724 0.5668109969
H -1.1505162093 -0.900031981 2.0636524924
H -2.6472469346 -1.1907915164 1.171861398
H -1.7146377676 1.0298542094 -1.7344468784
H -3.004015035 0.0012283657 -1.1092810912
H -1.49296136 -0.7205825654 -1.6541202169
*
