! r2scan-3c def2/J RI DEFGRID2 scfconv6 printgap
%output
    printlevel normal
end
* xyz 0 1
C -3.4295532005 0.6351266858 0.3265700233
C -2.7390884331 -0.7043971193 0.0972601264
C -1.3299546451 -0.5665908675 -0.4783248787
C -0.3456694716 0.0673789588 0.5097298976
C 1.0143863251 0.2174605388 -0.1154705546
O 1.2343919331 0.7042204039 -1.2048512341
O 1.9749302652 -0.2519239319 0.6747632166
C 3.3230759655 -0.1630167682 0.2048550279
H -4.459345309 0.4766986218 0.6367494939
H -2.9293024964 1.2086315856 1.1022122909
H -3.4330116218 1.221562964 -0.5894516249
H -2.6916503785 -1.2567838502 1.0375330949
H -3.3348353443 -1.2922836207 -0.603505386
H -1.3552650184 0.0419365489 -1.3844875637
H -0.9601146787 -1.5563325124 -0.7548748346
H -0.2521969087 -0.5311264373 1.4150872389
H -0.6916499378 1.0676734073 0.7752741131
H 3.559907359 0.8690822508 -0.0558769073
H 3.4499908309 -0.7900374878 -0.6782978443
H 3.9427823399 -0.5130495376 1.0240984004
*
