! pbe def2-sv(p) def2/J RI DEFGRID1 loosescf d4 GCP(DFT/SV(P)) printgap
%output
    printlevel normal
end
* xyz 0 1
C 1.0364451046 -1.6526513601 0.4085310934
O 0.5705933256 -0.8276359193 -0.6696823389
C -0.1670481701 0.2863386981 -0.2770520238
O 0.5408571722 1.1383318163 0.5510379913
C 1.6121678099 1.8192307958 -0.0977476551
O -1.3031755598 -0.0434353382 0.4394869613
C -2.3079585493 -0.6938759404 -0.3348126524
H 0.6240311471 -2.65210936 0.2748352281
H 0.7105073085 -1.2362351799 1.361156835
H 2.1245640879 -1.686085447 0.3660293365
H -0.4253732308 0.7799644586 -1.2384836083
H 2.308776894 1.1060648095 -0.5434747097
H 2.1002163765 2.3916576561 0.6849106459
H 1.2213452466 2.4835972321 -0.8729653423
H -2.680408837 -0.0198958158 -1.1107820046
H -3.0968127122 -0.9370259138 0.3701843597
H -1.9122436936 -1.6009656473 -0.79652292
*
