! pbe def2-sv(p) def2/J RI DEFGRID1 loosescf d4 GCP(DFT/SV(P)) printgap
%output
    printlevel normal
end
* xyz 0 1
C 1.9520537422 -1.066295494 -0.473539568
C 1.7909798496 0.0511767828 0.5518185272
C 1.2221768038 1.3468994371 -0.0432230319
C -0.2870748263 1.5409970936 0.1266432472
C -1.1650058607 0.5775581716 -0.6575529847
Cl -1.4498931422 -0.968022939 0.2238515951
H 2.4036307959 -1.9398635061 -0.008028083
H 2.5954369388 -0.7436778245 -1.2895670913
H 0.9930225771 -1.3655231047 -0.8855719171
H 1.1489092484 -0.2922047053 1.3645716878
H 2.7733420437 0.2601285273 0.9809301143
H 1.4718857823 1.3952878963 -1.1046377503
H 1.7049340001 2.1963630669 0.4435292228
H -0.5339342432 2.5459639072 -0.2230049383
H -0.547274529 1.4876867026 1.185068915
H -2.1576436609 0.9954415712 -0.8152841199
H -0.7176124149 0.3104140048 -1.6129931299
*
