! r2scan-3c def2/J RI DEFGRID2 scfconv6 printgap
%output
    printlevel normal
end
%cpcm
    smd true
    smdsolvent "water"
end
* xyz 0 1
C -3.2988919577 -0.5771361508 0.5623057278
C -2.5170439037 -0.2652044256 -0.708915764
C -1.8035318801 1.0855804023 -0.6663148527
C -0.7202381145 1.1926690142 0.3859422185
I 0.9542514819 -0.1597826268 0.0414790146
H -2.635718619 -0.7144892114 1.4129141537
H -3.9945358861 0.2273410716 0.7910882601
H -3.866324451 -1.495194671 0.4335292163
H -3.2053541038 -0.2567944388 -1.5560924047
H -1.7861999576 -1.0569807692 -0.8896517004
H -1.3772984369 1.2958692975 -1.6499729312
H -2.5349283441 1.8690789092 -0.4466073629
H -1.089520396 0.9531475813 1.3782591025
H -0.277983245 2.1849529592 0.3921047815
*
