! pbe def2-sv(p) def2/J RI DEFGRID1 loosescf d4 GCP(DFT/SV(P)) printgap
%output
    printlevel normal
end
* xyz 0 1
C 3.1229033678 -0.8714777555 0.35514709
C 2.6709940053 0.4032040799 -0.3487972199
C 1.3324710609 0.9346598828 0.1660166381
C 0.1586430414 0.0139517102 -0.1734523137
C -1.1518343138 0.6422636158 0.264578023
Cl -2.5376173808 -0.4391738199 -0.1206677024
H 2.4474076721 -1.6960509068 0.1445782592
H 3.1581515547 -0.7189994769 1.4313943969
H 4.1165301596 -1.1548922314 0.0166764747
H 3.4282692518 1.1752543764 -0.1977104674
H 2.5970459525 0.2181752112 -1.4222553102
H 1.1500356427 1.9149484425 -0.2788297098
H 1.3889456482 1.0651123531 1.248227365
H 0.2785066374 -0.946719341 0.3276221695
H 0.1337312893 -0.1657375438 -1.2497465543
H -1.1812492378 0.800623456 1.3412304747
H -1.3445815209 1.5783942252 -0.2566856334
*
