! r2scan-3c def2/J RI DEFGRID2 scfconv6 printgap
%output
    printlevel normal
end
%cpcm
    smd true
    smdsolvent "water"
end
* xyz 0 1
C 1.2361550971 -1.6942913183 0.517405782
O 0.897956881 -0.9153102387 -0.637442939
C -0.0950362159 0.0199456964 -0.433491516
O 0.282716357 1.0267252448 0.4603616542
C 1.2948517197 1.8928157796 -0.0384989438
O -1.2308712833 -0.5970114993 0.0545557611
C -2.3925147984 0.2276411309 0.0612750917
H 0.4142918386 -2.3652419962 0.768185982
H 1.4497302398 -1.039046117 1.3635577559
H 2.1200819665 -2.2548194953 0.2290480391
H -0.2771951479 0.4630251284 -1.4376999879
H 1.5045031919 2.5867341916 0.7699464697
H 0.9306753216 2.4286442516 -0.9196578862
H 2.1911284116 1.326857525 -0.3010728666
H -2.6245675364 0.5590865016 -0.954640219
H -2.2428902456 1.0919340678 0.7102723939
H -3.1867710766 -0.4050618968 0.4456155362
*
