! r2scan-3c def2/J RI DEFGRID2 scfconv6 printgap
%output
    printlevel normal
end
* xyz 0 1
C -3.7463524589 0.5396687881 -1.8026260603
C -3.2839222889 -0.4280149654 -0.7121498367
H -3.5700922762 -1.4521122069 -0.9617526283
C -1.784025099 -0.3686107209 -0.5256439184
C -0.9826082187 -1.461943156 -0.8277480781
C 0.388976172 -1.3955961621 -0.674651991
C 1.0164463522 -0.2393589924 -0.2137833419
C 0.1873857886 0.8359967755 0.0903582668
C -1.1832668473 0.7915214143 -0.0539883756
F 0.729857805 1.9884507162 0.5851553093
C 2.4783086768 -0.1806108533 -0.0565463932
C 3.1577656292 -1.2441213971 0.5336990015
C 4.5316743649 -1.2024473353 0.6800272476
C 5.2463994534 -0.1028686061 0.2336475039
C 4.5791367216 0.9566187647 -0.3579290189
C 3.2040636409 0.9210967012 -0.5014612909
C -3.9104099011 -0.0854637254 0.625189553
O -4.1344246445 1.0367242713 1.0213404087
O -4.1579595283 -1.1658184972 1.3453171183
H -4.8099951844 0.415631058 -1.9875501224
H -3.5692973345 1.5657865457 -1.4920509312
H -3.2002757636 0.3470387787 -2.7212651161
H -1.4341270573 -2.3717539371 -1.1905993394
H 0.9990108568 -2.247478849 -0.9304701741
H -1.7713565495 1.6543060672 0.2184447019
H 2.6006913269 -2.094816347 0.8963735189
H 5.046747844 -2.0292907234 1.1451966876
H 6.3192370707 -0.0709368761 0.3472541439
H 5.1305694565 1.8153646619 -0.7100648468
H 2.6915248214 1.7473039248 -0.9714818877
H -4.5285974326 -0.9629837762 2.2267678506
*
