! pbe def2-sv(p) def2/J RI DEFGRID1 loosescf d4 GCP(DFT/SV(P)) printgap
%output
    printlevel normal
end
* xyz 0 1
C 2.3918222763 -0.3790312732 0.3697853751
C 1.3294765849 0.5056305333 -0.2733228915
C -0.0041162744 -0.2333884746 -0.4722067051
C -1.1633356302 0.4482283959 0.2531683422
N -2.3828323859 -0.3366773137 0.105734136
H 2.5968141149 -1.2439819973 -0.2565741443
H 3.3180164493 0.1747799075 0.5050568806
H 2.0549234206 -0.7296092821 1.3423816036
H 1.1685374877 1.3808918335 0.3596305665
H 1.7019484911 0.8663654946 -1.2334308753
H -0.2479723829 -0.297786034 -1.5344782245
H 0.0724229667 -1.2535218073 -0.0954025839
H -1.2675903194 1.4810863459 -0.1247415531
H -0.9389512178 0.5057227099 1.3223307149
H -2.6291003901 -0.3984129831 -0.8768496707
H -3.1488595296 0.1243597714 0.5834182556
*
