! r2scan-3c def2/J RI DEFGRID2 scfconv6 printgap
%output
    printlevel normal
end
* xyz 0 1
C -3.8817709418 0.3801165757 0.0771281948
C -2.6838114489 -0.5469482436 0.243974812
C -1.3707013564 0.1792713002 -0.0362889304
C -0.1620924402 -0.7409122922 0.1516617106
C 1.1155623625 -0.0502426295 -0.2462947745
O 1.2698879135 0.5997363615 -1.2590323031
O 2.0733147309 -0.2475868747 0.6524921419
C 3.3643144758 0.3266470241 0.4231160698
H -3.9240897373 0.7678344595 -0.9379375926
H -4.8070290124 -0.1520298006 0.2819341427
H -3.8099706537 1.2222718853 0.7614012161
H -2.6675945923 -0.9393406352 1.2625547828
H -2.7814802712 -1.3929500689 -0.4388230765
H -1.2785410746 1.0365716042 0.633971931
H -1.3653929556 0.5589422029 -1.0600967737
H -0.2737823139 -1.615323216 -0.4935977346
H -0.072245721 -1.0760457461 1.1842059329
H 3.5024951243 0.5160317679 -0.6419301318
H 4.0916142491 -0.3914856473 0.7918584676
H 3.4371721245 1.2627366416 0.9761010612
*
