! r2scan-3c def2/J RI DEFGRID2 scfconv6 printgap
%output
    printlevel normal
end
%cpcm
    smd true
    smdsolvent "water"
end
* xyz 0 1
C -4.4946210176 -1.217840348 -0.2522811661
C -3.6818601714 -2.3426534358 -0.2253252268
C -2.3097951259 -2.2030302148 -0.1286261979
C -1.7255992903 -0.9401014657 -0.0564079634
C -2.5466728357 0.1931146272 -0.0832489521
C -3.9285871608 0.0410614357 -0.1818160724
C -1.9706375113 1.5419367213 -0.0089946031
O -2.6797332039 2.5458491856 -0.0390801215
C -0.5046466158 1.6333237107 0.1051616599
C 0.0416074318 2.9023412245 0.1882753909
C 1.4194856079 3.0724213871 0.3039549406
C 2.2473125042 1.9827758071 0.333764843
C 1.7337481777 0.6656386752 0.2451450303
C 0.3208901104 0.4844865897 0.1304048799
C -0.2569816257 -0.8382819488 0.0442910924
O 0.4202394326 -1.882719421 0.0511691937
N 2.5567271077 -0.3876956364 0.2645934195
C 3.994109267 -0.346182193 0.3910117593
C 4.5721081579 -1.7542896948 0.2300791855
O 4.5420777615 -2.2125237167 -1.1023367113
H -5.5653008155 -1.3237108357 -0.3281470744
H -4.118703978 -3.3274080772 -0.280064064
H -1.6609606397 -3.0660722538 -0.1067300314
H -4.5365233226 0.9335091657 -0.2008889598
H -0.6263835919 3.7495345708 0.163816085
H 1.8303425992 4.0673258541 0.3726096104
H 3.3108352609 2.1208369924 0.4302657234
H 2.0993095653 -1.2978123187 0.256069348
H 4.2825160228 0.0445674212 1.373160501
H 4.4214805746 0.2949046031 -0.3868794896
H 4.0395424298 -2.4514141777 0.8898911354
H 5.6275852212 -1.7457686711 0.5081370985
H 3.6240995883 -2.2732838124 -1.4002636395
*
