! pbe def2-sv(p) def2/J RI DEFGRID1 loosescf d4 GCP(DFT/SV(P)) printgap
%output
    printlevel normal
end
* xyz 0 1
C -2.7272148074 -0.79410952 0.3756586397
C -1.8847669925 -0.3147665447 -0.801440354
C -1.2667594544 1.0664237845 -0.5785395308
C -0.3190710668 1.1223037199 0.6272068462
C 0.7889840629 0.1111573723 0.4996206862
O 0.9805733377 -0.8143179902 1.2613384071
O 1.5533272525 0.3453156063 -0.5615486927
C 2.6379390252 -0.5516389318 -0.8061378276
H -2.1007493494 -1.0024933552 1.2396138363
H -3.4639541011 -0.0423849967 0.6485105763
H -3.250717731 -1.7101679872 0.1134930948
H -1.091760019 -1.0422987708 -0.993006664
H -2.5113992994 -0.2678969844 -1.6944726699
H -2.0627199398 1.7955517803 -0.4213770075
H -0.7103724279 1.3530370772 -1.4722635353
H -0.8543553231 0.9265343382 1.5548157101
H 0.1334763145 2.1133103186 0.6752980424
H 3.3656445811 -0.4853999584 0.0035806816
H 3.0738043943 -0.2352741246 -1.7484474055
H 2.2702667789 -1.5768549596 -0.8674642006
*
