! pbe def2-sv(p) def2/J RI DEFGRID1 loosescf d4 GCP(DFT/SV(P)) printgap
%output
    printlevel normal
end
* xyz 0 1
C -1.8305360842 -1.2657594187 -0.3884214196
C -2.4370999292 -0.0624184719 0.323072368
C -1.5873222073 1.2020603721 0.200093841
C -0.2040580371 1.0609723815 0.8431500905
C 0.7786918728 0.3724471277 -0.066418068
O 0.9022971893 0.584699253 -1.2538472449
O 1.5420028672 -0.493953904 0.5973708855
C 2.5499502228 -1.1863494927 -0.1432941353
H -2.5242553226 -2.1029069338 -0.3759531722
H -1.602090786 -1.0209003523 -1.424098642
H -0.9108910219 -1.5827686935 0.0981944627
H -3.4197636281 0.144263343 -0.1053148709
H -2.5782898278 -0.3009424499 1.3792931512
H -2.1166824566 2.0255731355 0.6802890554
H -1.4515320192 1.4533587176 -0.8541720379
H -0.2525372777 0.518945327 1.7868035861
H 0.2055872184 2.0554956216 1.033486744
H 3.0557759867 -1.8239270029 0.5746570543
H 3.2417441411 -0.4713427873 -0.5898775006
H 2.0896050395 -1.7767127817 -0.936728075
*
