! pbe def2-sv(p) def2/J RI DEFGRID1 loosescf d4 GCP(DFT/SV(P)) printgap
%output
    printlevel normal
end
* xyz 0 1
C -2.3248382961 -1.250240394 0.7025234343
C -2.5247830815 0.045639917 -0.0739078529
C -1.3248866942 0.3539123555 -0.9760472707
C -0.1006885778 0.6553168083 -0.1505743195
O -0.0348454866 1.5090666602 0.710690586
O 0.9157570015 -0.1323421904 -0.4707753314
C 2.155374159 0.0390723425 0.2370877767
C 3.047716463 -1.1469418692 -0.0740751629
H -3.1974054439 -1.4638847036 1.3139573584
H -2.1655017396 -2.0829871842 0.0217743316
H -1.4594654701 -1.1707280381 1.3579499671
H -2.65888827 0.8751555506 0.6230132498
H -3.4188500481 -0.0317699679 -0.6929442643
H -1.5413625045 1.2392340949 -1.5760791317
H -1.1033631234 -0.4857083542 -1.6335634552
H 2.6077749637 0.9812580231 -0.0889188758
H 1.9359011289 0.1178879654 1.3070859587
H 2.5734661556 -2.0673601709 0.2536330596
H 3.2252302946 -1.2060249631 -1.1436914137
H 3.9950127282 -1.0286556966 0.4414378871
*
