! r2scan-3c def2/J RI DEFGRID2 scfconv6 printgap
%output
    printlevel normal
end
%cpcm
    smd true
    smdsolvent "water"
end
* xyz 0 1
C -3.5121364897 -0.826803618 0.1949020763
C -2.0959655954 -0.6490140941 -0.3365562776
C -1.2740350041 0.278744504 0.5654870497
C 0.0828375423 0.5347155582 -0.0355109017
O 0.2725062523 0.9877867859 -1.1453289338
O 1.0587752853 0.2038349063 0.8004061671
C 2.4205507733 0.369136258 0.368652481
C 2.9145956435 -0.8675360189 -0.3661250431
H -3.4921393366 -1.2469217049 1.1972368847
H -4.0287844222 0.1288267109 0.2308845267
H -4.0728568601 -1.4978322251 -0.449796557
H -2.1222670736 -0.223729402 -1.3417608474
H -1.6014390659 -1.6204554266 -0.3977773019
H -1.1451442771 -0.1516049373 1.5576285285
H -1.7874510781 1.2383894871 0.6505053965
H 2.4761252137 1.2498673001 -0.2782693524
H 2.9826558097 0.5366536747 1.287831301
H 3.9608674461 -0.738943058 -0.6234534582
H 2.8043939275 -1.7459557993 0.2639238688
H 2.3413858951 -1.0115120437 -1.2793467243
*
