! pbe def2-sv(p) def2/J RI DEFGRID1 loosescf d4 GCP(DFT/SV(P)) printgap
%output
    printlevel normal
end
* xyz 0 1
C -3.7861750098 -0.6264198511 -0.245917959
C -2.6761061458 0.1048162704 0.4996538669
C -1.3116451849 -0.1556368787 -0.1336534224
C -0.1925842183 0.5838369039 0.6113277087
C 1.1165350375 0.3786728715 -0.1014329085
O 1.3823117623 0.8041359892 -1.2064011246
O 1.9605353039 -0.3553791296 0.6146519
C 3.2378021402 -0.6466251861 0.0402930803
H -4.7493589495 -0.4282880883 0.216777541
H -3.8278869321 -0.2988748262 -1.2821443611
H -3.6119461755 -1.6997997549 -0.2334232304
H -2.8784856334 1.1773540413 0.4906617858
H -2.658707894 -0.2237926655 1.5403334927
H -1.3174042903 0.1746482022 -1.1746549109
H -1.1038394677 -1.2277345413 -0.1236279345
H -0.1016129314 0.2174436509 1.632724306
H -0.4139735058 1.6519343076 0.6186862897
H 3.7816729076 0.280175033 -0.1453821818
H 3.1094859124 -1.1773985088 -0.9036561003
H 3.753470918 -1.2630050209 0.7696138038
*
