! r2scan-3c def2/J RI DEFGRID2 scfconv6 printgap
%output
    printlevel normal
end
* xyz 0 1
C 2.9003715087 -0.6567349982 -0.5425614004
C 2.423363562 0.2871318839 0.5558467494
C 0.9063921247 0.2738017939 0.7462745767
C 0.1485055406 0.8528959457 -0.4474686264
C -1.345093659 0.9497347394 -0.1966858303
Cl -2.0849071818 -0.6840864223 -0.0292797914
H 2.5481849068 -0.3335525895 -1.5182747145
H 2.5357171945 -1.6653852452 -0.3607527813
H 3.9870411223 -0.6849407619 -0.5682351331
H 2.8904874398 -0.0066755738 1.498269209
H 2.7495167655 1.3040333758 0.3279290122
H 0.6593118091 0.8583877402 1.6355461529
H 0.5738113309 -0.7515230063 0.9210310601
H 0.3231763433 0.2418652536 -1.3331124637
H 0.5110976424 1.862757358 -0.6510757531
H -1.5640379911 1.4736132507 0.7322478231
H -1.8614179218 1.4241986792 -1.0289227887
*
