! pbe def2-sv(p) def2/J RI DEFGRID1 loosescf d4 GCP(DFT/SV(P)) printgap
%output
    printlevel normal
end
* xyz 0 1
C -2.3913580306 -1.1840538398 -0.5970456272
C -2.0235950771 -0.5519937281 0.7399656973
C -1.4282034692 0.8489192091 0.5591454894
C -0.1179122956 0.8064045618 -0.1843571886
O 0.1164596577 1.4108909031 -1.2122048808
O 0.7722291892 0.031824935 0.4173562058
C 2.0683431241 -0.0974025143 -0.1886251877
C 2.8306113749 -1.18198393 0.5477107124
H -3.1314175566 -0.5784850785 -1.1150200664
H -1.5149713104 -1.2650842807 -1.2376460324
H -2.8018542286 -2.1789882645 -0.4472607556
H -1.2989538636 -1.179746489 1.2596877664
H -2.9159306335 -0.4717147526 1.3615483779
H -1.236630197 1.2908688587 1.5380130994
H -2.1103790765 1.4908613669 0.0016305027
H 1.9348781083 -0.3381211569 -1.2486546274
H 2.5761947888 0.8704430156 -0.1217631796
H 3.8228717978 -1.2771425629 0.1193818509
H 2.9161398086 -0.9253172982 1.5993490898
H 2.3100745904 -2.130998968 0.4595308904
*
