! pbe def2-sv(p) def2/J RI DEFGRID1 loosescf d4 GCP(DFT/SV(P)) printgap
%output
    printlevel normal
end
* xyz 0 1
C -2.2909979493 -1.2462746282 0.5899187335
C -1.9686512577 -0.3209331031 -0.5783901313
C -1.5644897587 1.0882894713 -0.1422073592
C -0.2978388816 1.1172034534 0.7241820464
C 0.8611082507 0.5132202889 -0.0230188335
O 1.3520121768 0.9680903502 -1.0352942999
O 1.2850145781 -0.6083517186 0.5501090515
C 2.3755206073 -1.3031195445 -0.0599450467
H -3.0341298578 -0.7904041331 1.2397187179
H -2.6885549971 -2.1883834477 0.2208627875
H -1.3997546878 -1.4618813712 1.173164418
H -1.1658084496 -0.7565852583 -1.1789786622
H -2.8475460805 -0.2376129548 -1.221220468
H -2.379609622 1.5410018205 0.4236529461
H -1.386164303 1.6943783858 -1.0328151333
H -0.4444116316 0.5678717156 1.65159714
H -0.0491359434 2.1549365344 0.9491376964
H 2.3605926212 -2.3055008285 0.356703089
H 3.3119852112 -0.7983313522 0.1789083017
H 2.2466778813 -1.3232154337 -1.1429274601
*
