! r2scan-3c def2/J RI DEFGRID2 scfconv6 printgap
%output
    printlevel normal
end
* xyz 0 1
C -3.4989773855 -0.9161830141 0.1805753361
C -2.1642936042 -0.28054992 0.5468689896
C -1.2403605634 -0.1823000072 -0.673828697
C 0.0313208011 0.5344861979 -0.3042357777
O 0.0872873325 1.684680191 0.0822162859
O 1.0893935862 -0.251819457 -0.4315929296
C 2.3905364511 0.2547561391 -0.0838385094
C 3.1666928026 -0.8353358165 0.6336804576
H -4.0116552355 -0.3207691448 -0.5705326447
H -3.34734182 -1.9168985294 -0.2156784125
H -4.1345631556 -0.9848245114 1.0590862986
H -1.6740688414 -0.874460242 1.3208027766
H -2.3234816326 0.7233985597 0.9455020044
H -1.740297702 0.3949349755 -1.4532051474
H -0.9914231025 -1.1726082311 -1.0523521738
H 2.8852482013 0.5424577541 -1.015964
H 2.2606033562 1.1438091163 0.5411881038
H 2.6665350608 -1.1087975256 1.5586303925
H 3.2395631013 -1.7149401345 0.0009380435
H 4.1638921723 -0.4734993146 0.8618046645
*
