! pbe def2-sv(p) def2/J RI DEFGRID1 loosescf d4 GCP(DFT/SV(P)) printgap
%output
    printlevel normal
end
* xyz 0 1
C 1.7297390979 1.1526446966 0.6399835865
C 1.3958072968 -0.2428177619 0.094856992
C 1.6716732252 -0.3127674949 -1.4100399183
N 0.0572151277 -0.7358551335 0.4192254646
C -1.0965803116 0.1574654093 0.3493520526
C -2.2707323711 -0.5601115296 1.0173329116
C -1.4613682117 0.4944947614 -1.0962427346
H 1.5240995952 1.2086783182 1.7076587604
H 2.7841280194 1.361320491 0.480614967
H 1.1490682248 1.9183242093 0.1309052427
H 2.0763061817 -0.9589219234 0.5732703188
H 1.2011327511 0.5065172567 -1.9432707503
H 1.2946388574 -1.2505745881 -1.8062965257
H 2.7433618411 -0.2622176741 -1.5854773646
H 0.0799033305 -1.1264410014 1.354327454
H -0.9201583749 1.1030730455 0.8960058523
H -2.0497228266 -0.7751701283 2.0609071932
H -3.1630209757 0.0585715463 0.9767898163
H -2.4662622716 -1.4972609189 0.5035037486
H -1.4596091482 -0.4116447326 -1.6945660456
H -0.7612010359 1.2031143921 -1.5273760229
H -2.4528583951 0.9391285228 -1.1295044964
*
