! r2scan-3c def2/J RI DEFGRID2 scfconv6 printgap
%output
    printlevel normal
end
* xyz 0 1
C 2.291748654 1.1440017864 -0.0868819468
C 1.2562830147 0.0922418747 0.321990596
C 1.7723583321 -1.3072018779 -0.0438835209
N -0.0105396755 0.4569167211 -0.2835595108
C -1.2547396587 0.014311812 0.3184471362
C -1.7200071486 -1.3833106987 -0.1142794619
C -2.3363397733 1.0429051106 -0.0268303218
H 2.470257181 1.0957175937 -1.1582041883
H 1.9249277472 2.1362863187 0.1576213588
H 3.2308824657 0.9747296925 0.4323130488
H 1.1164725809 0.1451264925 1.4086741906
H 2.7648553238 -1.4578017823 0.3730418894
H 1.8324333403 -1.4123662113 -1.1256485499
H 1.1200119704 -2.0842218719 0.3454880004
H -0.0028720231 0.2607945198 -1.2779624585
H -1.1041923733 0.0184907653 1.4048790177
H -1.8136072766 -1.4265090631 -1.1979072473
H -1.0206358987 -2.1515538805 0.2040158445
H -2.6897860185 -1.6039352857 0.3244281839
H -2.0069306586 2.0356738249 0.2644180536
H -3.2624796236 0.8097591797 0.4910405623
H -2.5237352937 1.0416889108 -1.0977017811
*
