! pbe def2-sv(p) def2/J RI DEFGRID1 loosescf d4 GCP(DFT/SV(P)) printgap
%output
    printlevel normal
end
* xyz 0 1
C 1.621446954 -1.6591039486 0.2363056768
O 0.3423351039 -1.0545920998 0.3918225406
C 0.0049055793 -0.1770014441 -0.6300231557
O 0.7646904255 0.9934962058 -0.5908794494
C 0.6871119816 1.780715875 0.601294998
O -1.3627827639 0.023896181 -0.661019182
C -2.080220213 0.0881815183 0.579559163
H 1.6329179198 -2.2892908562 -0.6562616993
H 1.7652499934 -2.2601679825 1.1294181957
H 2.3996223697 -0.8973582072 0.1571269342
H 0.2560372275 -0.5988218708 -1.6204254833
H 1.6003037601 2.370965638 0.6160898442
H 0.6390568427 1.1381017363 1.4818676583
H -0.1802605778 2.4422804531 0.5617645759
H -1.9606780917 1.0609889939 1.0575532358
H -1.7532170053 -0.7054906456 1.2498551564
H -3.1186822179 -0.0614767605 0.2956603742
*
