! r2scan-3c def2/J RI DEFGRID2 scfconv6 printgap
%output
    printlevel normal
end
* xyz 0 1
C -3.4481997542 -0.4780004123 -0.4189021512
C -2.7017558716 0.1886625385 0.7308018969
C -1.289335769 0.6359526855 0.3551017073
C -0.3528643153 -0.5441412707 0.065249313
C 1.0129718491 -0.0350362975 -0.3052959335
O 1.2598007694 0.6677589493 -1.2633606553
O 1.9408280484 -0.4332108629 0.5586401328
C 3.2866061586 -0.0060044422 0.3305598732
H -3.4559823375 0.1697309497 -1.2925321901
H -2.9861539754 -1.422395078 -0.6930777865
H -4.4770187057 -0.6779537946 -0.1305744294
H -3.2610166708 1.0699511471 1.0504119139
H -2.6490415376 -0.4969235217 1.5784404457
H -0.8714648116 1.2210671779 1.1773687483
H -1.3250301125 1.2785040296 -0.527110392
H -0.7376170294 -1.1124999265 -0.781792086
H -0.2645032449 -1.1918847975 0.9363062921
H 3.6167249005 -0.3271889509 -0.6579719904
H 3.8784337854 -0.4719930347 1.1118227368
H 3.3464509432 1.0813416996 0.3882448016
*
