! r2scan-3c def2/J RI DEFGRID2 scfconv6 printgap
%output
    printlevel normal
end
* xyz 0 1
C -3.6331550411 0.007368956 1.8543215594
C -3.051863261 0.540778041 0.5444341348
H -3.1565004987 1.6288111254 0.5024536659
C -1.5839581782 0.193773808 0.3935537109
C -1.1721847788 -1.1525866538 0.3822180456
C 0.1481941308 -1.4802213167 0.2571122202
C 1.1357416528 -0.480961584 0.1349082966
C 2.5038594213 -0.7990049979 0.0062779856
C 3.4391123334 0.1981619488 -0.1138083675
C 3.0291966228 1.5525000865 -0.1087761134
C 1.7131297558 1.8792128067 0.0145797678
C 0.7261845295 0.8762261578 0.1397782894
C -0.6422325013 1.182309355 0.2670037517
O 4.7835422035 0.0103695789 -0.2432140267
C 5.2816595033 -1.313478346 -0.2563426675
C -3.7578756874 -0.0125329085 -0.6743249883
O -3.9510859258 0.6318095942 -1.6856830282
O -4.1167373845 -1.2775481189 -0.5612162454
H -3.0701729427 0.4154555375 2.6891688887
H -4.6736656174 0.3067724996 1.9508615008
H -3.5782472667 -1.0760188646 1.8892725246
H -1.9144893288 -1.9313464636 0.4666537131
H 0.452522139 -2.5164656596 0.2484168825
H 2.7838481747 -1.8405304732 0.005626457
H 3.7948695724 2.3059005083 -0.205782721
H 1.4068733176 2.9144679976 0.0172668849
H -0.939290396 2.2212893188 0.2651908252
H 5.0525425025 -1.8291475031 0.6798289171
H 6.3590233335 -1.2140311182 -0.3663997694
H 4.8754896552 -1.8783127053 -1.0994817685
H -4.5439771434 -1.6204758324 -1.3700519498
*
