! r2scan-3c def2/J RI DEFGRID2 scfconv6 printgap
%output
    printlevel normal
end
* xyz 0 1
C -3.4787814343 -0.0935338075 -0.4077219735
C -2.6014479682 -0.2332323177 0.8308012233
C -1.1863887187 0.310415673 0.6332493792
C -0.3761597648 -0.5084488241 -0.3837392204
C 1.0176213072 0.0505094071 -0.4547374138
O 1.3897690052 0.9058835973 -1.2312284513
O 1.8072448022 -0.4804625783 0.4723483316
C 3.1502605852 0.0030082025 0.5558785471
H -4.4966401721 -0.4007560396 -0.1814329518
H -3.4991228514 0.9405330662 -0.7442104398
H -3.1119305348 -0.7139024386 -1.2206908734
H -3.0619565876 0.3171136965 1.6534798632
H -2.5465145708 -1.2834031027 1.1225283554
H -0.6614379266 0.2908216333 1.5907274145
H -1.2353599731 1.3478104337 0.2949278447
H -0.8281269687 -0.4353098925 -1.3712525631
H -0.3277197457 -1.5476567055 -0.0613232995
H 3.1496927986 1.0553342713 0.8421455453
H 3.6446970416 -0.1008677391 -0.4106223999
H 3.6348749612 -0.6066523478 1.3117469652
*
