! r2scan-3c def2/J RI DEFGRID2 scfconv6 printgap
%output
    printlevel normal
end
%cpcm
    smd true
    smdsolvent "water"
end
* xyz 0 1
C -2.1421757243 -1.3964193165 -0.45705976
C -2.0459835267 -0.4414657679 0.7265167613
C -1.4733485569 0.9192416679 0.3121959134
C -0.0525336509 0.7938812992 -0.175452118
O 0.3315315394 1.124614027 -1.2786828123
O 0.7439952047 0.2904869059 0.7587659652
C 2.1281582825 0.0807964333 0.4381286635
C 2.3380253752 -1.2652059407 -0.2389321845
H -2.549428326 -2.3531981344 -0.1415048833
H -2.7866633099 -0.9832930242 -1.2295292995
H -1.1599554857 -1.5669318715 -0.8938654765
H -1.4082459479 -0.8723624479 1.4993148984
H -3.0388850087 -0.2853414755 1.1494747193
H -1.470810339 1.5889008395 1.1731688311
H -2.0673288784 1.3606645458 -0.4881220388
H 2.4636360991 0.8946104672 -0.2120763212
H 2.6419466269 0.1260075421 1.398768166
H 1.9473243285 -2.0642780725 0.3854664483
H 1.827307832 -1.2826078122 -1.1994913079
H 3.398738542 -1.4242654873 -0.4028787374
*
