! r2scan-3c def2/J RI DEFGRID2 scfconv6 printgap
%output
    printlevel normal
end
%cpcm
    smd true
    smdsolvent "water"
end
* xyz 0 1
C -3.9254643711 0.2009574142 -0.2226854099
C -2.6962445019 -0.3687319915 0.4750316942
C -1.404702762 0.1393814069 -0.1605981792
C -0.1692100578 -0.4215574747 0.5393365616
C 1.108226634 -0.0114155139 -0.1450473415
O 1.1988411763 0.3670253562 -1.2934539779
O 2.1477449861 -0.1347257747 0.6749236779
C 3.4579686773 0.1767094468 0.1891634252
H -3.9289186491 1.2867409198 -0.1618201128
H -3.9312776029 -0.0813639513 -1.2729296889
H -4.8349972822 -0.1731283287 0.2401231018
H -2.7143115807 -0.0867874107 1.5295536598
H -2.7212054774 -1.458770543 0.4201565591
H -1.378352789 1.2301608458 -0.1174453201
H -1.3719738145 -0.1433766653 -1.2146690076
H -0.1996764935 -1.5141806972 0.5275702617
H -0.1195705353 -0.1051207241 1.5814329239
H 3.4310284228 0.30303154 -0.893674989
H 4.1070077001 -0.6501878956 0.4676588492
H 3.7899092018 1.0976737011 0.6663202475
*
