! pbe def2-sv(p) def2/J RI DEFGRID1 loosescf d4 GCP(DFT/SV(P)) printgap
%output
    printlevel normal
end
* xyz 0 1
C 2.0372197468 -0.6360406019 -0.1249733066
C 1.1143734827 0.372406599 0.5755090428
C -0.0040373135 0.8953185286 -0.3296147878
C -1.0774081471 -0.1478257271 -0.6472624684
N -1.9708318483 -0.3340586367 0.4909444712
H 3.0514399522 -0.252047579 -0.195281573
H 2.0754493463 -1.5801235974 0.4123653819
H 1.6919342713 -0.8405970634 -1.1355693336
H 0.6711658983 -0.0792873557 1.4643598921
H 1.7004096167 1.2271055035 0.9166783531
H -0.4967296996 1.738536773 0.1562625057
H 0.4325313458 1.2496010806 -1.2649574764
H -0.5964704952 -1.085585026 -0.9714839899
H -1.6908781294 0.2143373703 -1.4775540285
H -1.4445921389 -0.6896091966 1.282303959
H -2.6754331028 -1.0260226665 0.2625995669
*
