! pbe def2-sv(p) def2/J RI DEFGRID1 loosescf d4 GCP(DFT/SV(P)) printgap
%output
    printlevel normal
end
* xyz 0 1
C -3.4431460672 -0.9593397672 0.3001524757
C -2.1011503093 -0.6063806067 -0.3281208732
C -1.2910915851 0.3275677454 0.5836703211
C 0.0143290514 0.6616059007 -0.0859677063
O 0.192536208 1.6090616895 -0.8251853395
O 0.9499106125 -0.2306131113 0.2012434225
C 2.2542153767 -0.0834115177 -0.3864655974
C 3.278640836 -0.6880168473 0.5558677693
H -4.0011193591 -1.6205915956 -0.357028685
H -3.2965572939 -1.4609807172 1.2530116091
H -4.0327780331 -0.0620018294 0.4686810931
H -2.2592019662 -0.1134698541 -1.2897264219
H -1.5254369075 -1.5168433759 -0.5049448469
H -1.0893474663 -0.169251104 1.5316406923
H -1.8454006208 1.2508309651 0.7498967062
H 2.2460895303 -0.6018588827 -1.3502459535
H 2.4367110132 0.9814619361 -0.5633199547
H 3.0438931062 -1.7328277986 0.7357667148
H 4.2646869319 -0.6129786581 0.1094474419
H 3.2745925662 -0.1593493331 1.5047759001
*
