! r2scan-3c def2/J RI DEFGRID2 scfconv6 printgap
%output
    printlevel normal
end
* xyz 0 1
C -2.6751279968 0.0665925147 1.2123169765
C -2.5226692569 0.0120435505 -0.3029906574
C -1.2349127189 -0.7074613495 -0.7127657737
C -0.0182151763 0.0917977225 -0.3209486737
O 0.1332551918 1.2762233694 -0.5358809893
O 0.8801970726 -0.6634651181 0.3002988567
C 2.1192720903 -0.0603865252 0.7092117994
C 3.1376695873 -0.0775524613 -0.420395998
H -3.6000967341 0.5690110216 1.4823807683
H -2.6900411315 -0.9366806598 1.6314830316
H -1.8459811392 0.613903166 1.6572783589
H -2.4977036054 1.0264121954 -0.7055852218
H -3.3741795027 -0.510888156 -0.7388595022
H -1.2098732149 -0.8192348239 -1.7984520177
H -1.1674070643 -1.6920808556 -0.2516076524
H 1.9181220942 0.9663025519 1.0303325842
H 2.4525095255 -0.6638193288 1.5540080769
H 2.7859826083 0.5347594482 -1.2478714645
H 4.0798090074 0.3233897045 -0.0613604086
H 3.2898526227 -1.0945162261 -0.7715778973
*
