! pbe def2-sv(p) def2/J RI DEFGRID1 loosescf d4 GCP(DFT/SV(P)) printgap
%output
    printlevel normal
end
* xyz 0 1
C 1.4219147058 1.0501374119 -0.8386350258
C 1.2900872742 0.1139887933 0.3710915769
C 1.749477896 -1.3001855663 0.0014911982
N 0.0007881328 0.1032724836 1.0587097843
C -1.292661266 -0.024340738 0.3912725329
C -1.378052348 -1.2232202846 -0.5473641412
C -1.7884715652 1.2457135323 -0.3220859909
H 2.4657121684 1.1019869113 -1.1393744003
H 0.8452450282 0.6835972867 -1.6837419411
H 1.0863977789 2.0542403753 -0.5884922321
H 1.9872708565 0.4769630646 1.1383448998
H 2.8244304076 -1.2977712264 -0.1622548886
H 1.2698333691 -1.6573357313 -0.9033850755
H 1.5220960634 -1.9829589088 0.8146769938
H -0.0536557365 0.9173053785 1.6592474026
H -1.9887780846 -0.211549587 1.2233972743
H -2.4172913464 -1.3868418494 -0.8221365931
H -0.8115704424 -1.0519822096 -1.4582137667
H -1.0042124631 -2.1148847171 -0.054524449
H -2.8466130886 1.1428650413 -0.5508076111
H -1.255534228 1.4180668875 -1.2522097586
H -1.6616284702 2.1165466269 0.318926859
*
