! r2scan-3c def2/J RI DEFGRID2 scfconv6 printgap
%output
    printlevel normal
end
%cpcm
    smd true
    smdsolvent "water"
end
* xyz 0 1
C -2.4571316373 -1.2645968727 0.5600504707
C -2.544256388 0.0890074827 -0.1346501579
C -1.2846594584 0.3850281888 -0.9509418452
C -0.0855891287 0.6028882082 -0.0631963612
O -0.0920437932 1.2297544213 0.976283302
O 0.998265497 0.0291704848 -0.5677864303
C 2.2455122925 0.1459417048 0.1388015524
C 3.034306394 -1.1370889603 -0.0504826789
H -2.3146102855 -2.0601147314 -0.1674959128
H -1.6208210863 -1.2781891278 1.2564183433
H -3.3683723074 -1.4637707772 1.1174926629
H -2.6682867708 0.8753141761 0.6121909035
H -3.408128357 0.1051369723 -0.7994604386
H -1.4261020142 1.3055029326 -1.5215128209
H -1.0595688222 -0.4247073674 -1.6442980171
H 2.7806704833 1.004218576 -0.2785095508
H 2.0297859418 0.3425932563 1.1938803949
H 3.1916478757 -1.3208123776 -1.1091587022
H 3.9952707155 -1.0432287814 0.4445382435
H 2.4941933444 -1.9782788345 0.3748592362
*
