! r2scan-3c def2/J RI DEFGRID2 scfconv6 printgap
%output
    printlevel normal
end
* xyz 0 1
C 2.1514911145 -1.0127445316 -0.4810644968
C 2.1078497611 0.4395619872 -0.0147568171
C 0.9725830258 0.7153108737 0.9832096496
C -0.2341536847 1.430896793 0.3718011065
C -0.9562850923 0.6403035087 -0.703980414
Cl -1.6714560673 -0.8729035509 -0.0377417352
H 2.3629611959 -1.671726735 0.3586111718
H 2.9319863009 -1.1498356815 -1.2264237053
H 1.2040189073 -1.3197301368 -0.9159325409
H 3.0654935353 0.6738156529 0.4538932932
H 2.002834402 1.0977502335 -0.8791961012
H 1.3452805618 1.3426621822 1.7943768568
H 0.6420441787 -0.2257597725 1.4258514943
H 0.0948865117 2.3672641914 -0.0840461967
H -0.9404994217 1.6738893525 1.1678442485
H -1.7911491851 1.2062416875 -1.11339656
H -0.2859945746 0.3339927749 -1.5036157931
*
