! pbe def2-sv(p) def2/J RI DEFGRID1 loosescf d4 GCP(DFT/SV(P)) printgap
%output
    printlevel normal
end
* xyz 0 1
C -2.5652247729 -0.5696887222 1.0867236926
C -2.0893877098 -0.8151674106 -0.3400145217
C -1.3760530521 0.4127925996 -0.9197983147
C -0.104780215 0.7092160667 -0.1662526792
O 0.1118174967 1.7298467108 0.4562641739
O 0.7652728444 -0.2846275651 -0.2650629734
C 2.0339269816 -0.1607875724 0.3979722816
C 3.051475152 -1.002165857 -0.3497272032
H -3.2703149585 0.257640298 1.116727556
H -3.054289085 -1.4558636242 1.482240278
H -1.7267300195 -0.3196536388 1.7344204977
H -2.9455776739 -1.0497258721 -0.9732127031
H -1.4043824583 -1.6637569714 -0.36171995
H -2.0172057078 1.2922857693 -0.8627476124
H -1.1110992958 0.2199950398 -1.9598292315
H 2.3131661156 0.8976641889 0.419902842
H 1.9099178901 -0.5096832594 1.4281032188
H 2.7262975142 -2.0378249991 -0.3781367583
H 3.1613231893 -0.6411627302 -1.3683160837
H 4.0091858604 -0.9402511779 0.1563991911
*
