! r2scan-3c def2/J RI DEFGRID2 scfconv6 printgap
%output
    printlevel normal
end
* xyz 0 1
C -3.2947480563 0.011371927 0.9175147295
C -2.6694439393 -0.574007656 -0.3437805878
C -1.1489017812 -0.708523389 -0.2544179061
C -0.4470839034 0.6480915705 -0.1962189089
C 1.0548290348 0.5548459014 -0.2139903415
O 1.7876783092 1.4300507389 -0.6313872269
O 1.5102107303 -0.5822310357 0.2960622766
C 2.9272574851 -0.7613787881 0.3475030393
H -3.0037117677 -0.5686757851 1.7901258098
H -2.9854751035 1.0422332054 1.0672896639
H -4.3789919302 -0.0062925691 0.8406376814
H -3.0901375646 -1.5661019546 -0.518003318
H -2.9276194315 0.0501015803 -1.2016074268
H -0.789091484 -1.2536008175 -1.1291695441
H -0.8844894537 -1.289438413 0.6298337579
H -0.7122933754 1.1677956441 0.7275355416
H -0.7484349149 1.284901178 -1.0296875583
H 3.349349083 -0.689713713 -0.6555532182
H 3.0814611257 -1.7503092583 0.7671749877
H 3.37835934 0.0070444055 0.9763854303
*
