! pbe def2-sv(p) def2/J RI DEFGRID1 loosescf d4 GCP(DFT/SV(P)) printgap
%output
    printlevel normal
end
* xyz 0 1
C 3.1399342385 -0.7599432202 0.1260120453
C 1.9559492607 0.1302996115 0.486029034
C 1.0104475171 0.306187995 -0.70103807
C -0.1366502556 1.2807638207 -0.429175283
C -1.153467523 0.7735602231 0.5783808243
Cl -2.0078568881 -0.687743228 -0.0366458699
H 2.7950276485 -1.7442426036 -0.1832782648
H 3.8018357414 -0.8808358599 0.9800102281
H 3.7098777397 -0.325389545 -0.6922186729
H 1.421151375 -0.3168320826 1.3254884592
H 2.3221231874 1.1088977774 0.8040632098
H 0.5977046463 -0.6645237252 -0.9834495953
H 1.5839823858 0.6800222743 -1.551643395
H -0.6495113961 1.4983849275 -1.3676165987
H 0.2677023023 2.2170409789 -0.0388498075
H -0.6884491301 0.4779981159 1.5159332798
H -1.9289680069 1.5144166894 0.7630872273
*
