! r2scan-3c def2/J RI DEFGRID2 scfconv6 printgap
%output
    printlevel normal
end
%cpcm
    smd true
    smdsolvent "water"
end
* xyz 0 1
C -3.6504661546 -0.4773643771 0.3618265792
C -2.3554673018 0.252393919 0.0297225542
C -1.1504601521 -0.680771373 0.1169837919
C 0.1307406995 0.0013474187 -0.2846498796
O 0.2075124699 1.0620881778 -0.8671124139
O 1.1896549922 -0.7240131711 0.0640404111
C 2.4980749255 -0.2196528978 -0.2539146473
C 2.9955697643 0.7361426132 0.819665407
H -3.6093630954 -0.8872725305 1.3678547383
H -4.4931721757 0.2056922516 0.3023621061
H -3.8186077062 -1.293098999 -0.3368025792
H -2.2118323546 1.0871051288 0.7183573954
H -2.4067834062 0.6696056966 -0.9775673096
H -1.285184612 -1.5331060153 -0.5535692112
H -1.0258746217 -1.0765579794 1.1256413282
H 3.1258603048 -1.1088891218 -0.316414895
H 2.4517613782 0.2832452082 -1.2246577669
H 2.3577854049 1.6164774938 0.8582685053
H 2.9848141138 0.2474732785 1.7901500586
H 4.0086894659 1.0453292132 0.584385931
*
