! r2scan-3c def2/J RI DEFGRID2 scfconv6 printgap
%output
    printlevel normal
end
%cpcm
    smd true
    smdsolvent "water"
end
* xyz 0 1
C -3.2978707247 -0.8454152412 -0.3440499062
C -1.8980007313 -0.6203298369 0.2145013233
C -1.5033374685 0.8542976546 0.1647051782
C -0.1156095322 1.0944025773 0.7669189761
C 0.9526736752 0.4452028811 -0.0733018893
O 1.1040392367 0.6137446486 -1.2650410313
O 1.7307649873 -0.3531139731 0.6504855553
C 2.7987689024 -1.027465518 -0.020135133
H -3.5606108776 -1.8992343563 -0.3023582265
H -4.0302386272 -0.2837891603 0.2307503679
H -3.3499161765 -0.5182737202 -1.3799057193
H -1.8574905158 -0.9709999012 1.2479144884
H -1.1771935658 -1.2048652421 -0.3633017063
H -2.2356819567 1.4453019491 0.7158601843
H -1.4980039911 1.1943585539 -0.8729027876
H -0.0516615623 0.6972823313 1.7792224314
H 0.0893314901 2.1661725516 0.7852935338
H 2.4173898983 -1.5506568845 -0.8978734616
H 3.2081139611 -1.7236399261 0.7049043342
H 3.5521043801 -0.3054732884 -0.3368967536
*
