! r2scan-3c def2/J RI DEFGRID2 scfconv6 printgap
%output
    printlevel normal
end
%cpcm
    smd true
    smdsolvent "water"
end
* xyz 0 1
C -3.8976743643 -0.29373678 -0.3285812437
C -2.7023839627 0.0400830957 0.5558173125
C -1.3855507871 -0.1079920421 -0.201995455
C -0.1810486122 0.1984169319 0.6877995526
C 1.1079200894 0.186188444 -0.0901153291
O 1.2366192385 0.5331029651 -1.244893547
O 2.1219839308 -0.24781175 0.6529721742
C 3.4181589562 -0.2823479543 0.0487314523
H -4.8259562678 -0.1769561991 0.2245515039
H -3.9261544007 0.3647411507 -1.1935546903
H -3.8345096621 -1.3198968084 -0.6830566435
H -2.796111483 1.0648206918 0.9202582778
H -2.695599841 -0.6236092691 1.4225856744
H -1.3698749296 0.5686892079 -1.0587749277
H -1.2987427161 -1.1259168229 -0.587702793
H -0.0971515875 -0.5102473009 1.511294642
H -0.2880503218 1.2005127766 1.1112826145
H 3.4053527416 -0.9390948009 -0.8217931528
H 4.0876658729 -0.6606288709 0.8145019776
H 3.708936132 0.719968091 -0.2674671569
*
