! r2scan-3c def2/J RI DEFGRID2 scfconv6 printgap
%output
    printlevel normal
end
* xyz 0 1
C 3.8377111289 -0.2828557822 -0.2984877239
C 2.5233816872 -0.2316755599 0.4716598065
C 1.326458469 -0.0754982222 -0.4642573578
C 0.008334278 -0.0225251935 0.3093220342
C -1.1658003977 0.1357543647 -0.6395084128
Cl -2.7170986614 0.1975569241 0.269720473
H 4.6759773074 -0.3931336876 0.3846652548
H 3.9792964711 0.6303453519 -0.8718042754
H 3.8430192144 -1.1239588579 -0.987778642
H 2.4084049846 -1.1476564965 1.0546623354
H 2.5455470772 0.6057986776 1.1718686376
H 1.3033809394 -0.9139867819 -1.1628789572
H 1.4418655329 0.8404238057 -1.0468659082
H 0.0264062315 0.8158701931 1.0078996324
H -0.1138450863 -0.9390227261 0.8892335632
H -1.1061622713 1.0665725769 -1.2008643911
H -1.24771824 -0.7083778691 -1.321980981
*
