! pbe def2-sv(p) def2/J RI DEFGRID1 loosescf d4 GCP(DFT/SV(P)) printgap
%output
    printlevel normal
end
* xyz 0 1
C -2.5827775834 -1.2727127554 -0.0149351173
C -2.5217756365 0.2498963668 -0.0031982842
C -1.249979198 0.758556889 0.6842304301
C -0.0277941225 0.3888552875 -0.1166581985
O 0.1529345777 0.6846469904 -1.2797082014
O 0.8320330651 -0.319475891 0.6048259596
C 2.0666801463 -0.7335464831 -0.003502925
C 3.147194973 0.3199691183 0.1858499946
H -1.7442742545 -1.6828653782 -0.5749150793
H -2.5431292005 -1.6645578987 0.9985744189
H -3.5036601146 -1.6113030291 -0.4820480657
H -3.3890617516 0.6475507739 0.5243506427
H -2.5391132036 0.6268295613 -1.0276139618
H -1.151871072 0.3388285093 1.6845013369
H -1.283549613 1.8473803958 0.7470544432
H 2.3264569917 -1.6638756263 0.5026405349
H 1.8875448573 -0.9161473956 -1.0675590012
H 2.8699203683 1.2354139 -0.332161967
H 3.2766459494 0.5364632561 1.2427586708
H 4.0829874785 -0.046689355 -0.2230921428
*
