! r2scan-3c def2/J RI DEFGRID2 scfconv6 printgap
%output
    printlevel normal
end
* xyz 0 1
C 2.0343822535 -0.6279574051 -0.1509214131
C 1.1158814735 0.3364204465 0.5923284201
C 0.0013520299 0.9066275669 -0.288275914
C -1.0897414034 -0.0998919214 -0.6589122403
N -1.9627989433 -0.3649325006 0.4792446172
H 2.8348450309 -0.9656004241 0.5030423808
H 1.4907121199 -1.5029513942 -0.4984746159
H 2.4790471585 -0.1373503668 -1.0138970364
H 0.6816879257 -0.1655677173 1.4590881769
H 1.7140170454 1.1693758927 0.9677943113
H -0.4795959988 1.734279858 0.2348030625
H 0.4428638483 1.2954318049 -1.2078146148
H -0.6286883694 -1.0132595618 -1.0692565078
H -1.7147243243 0.3338715768 -1.445142401
H -1.4284920883 -0.7942088099 1.2272663373
H -2.6858849691 -1.0221341354 0.2098910162
*
