! pbe def2-sv(p) def2/J RI DEFGRID1 loosescf d4 GCP(DFT/SV(P)) printgap
%output
    printlevel normal
end
* xyz 0 1
C -1.963351635 0.9609295292 -0.3907201103
C -1.5546767077 -0.2665021901 0.4165471258
C -0.317577605 -0.9403856701 -0.1633949359
N 0.8932871415 -0.1399639386 0.008538784
O 0.9585182288 0.6457128094 0.9286221806
O 1.7982429678 -0.3266624787 -0.7833338294
H -2.147120542 0.6966063849 -1.4292643173
H -2.8713459426 1.3930781697 0.0193509887
H -1.1853004638 1.7207991555 -0.3570923319
H -2.3667227927 -0.9925922876 0.415295164
H -1.3552213415 0.0245309159 1.4484805166
H -0.1255523445 -1.8879589435 0.3492578211
H -0.4157173668 -1.1430077378 -1.2316250249
*
