! r2scan-3c def2/J RI DEFGRID2 scfconv6 printgap
%output
    printlevel normal
end
%cpcm
    smd true
    smdsolvent "water"
end
* xyz 0 1
C 1.4983886241 -1.8270059544 -0.181539301
O 0.2538442873 -1.2869461393 0.2540923944
C 0.0129992691 0.0076665165 -0.1698894238
O 0.9381952709 0.8588972333 0.4072330927
C 0.8600790302 2.2075446817 -0.0458454176
O -1.2608046495 0.3865311727 0.2142192524
C -2.3079573361 -0.3498681089 -0.4114306191
H 2.3288012348 -1.2536826475 0.2326431522
H 1.548689394 -1.819114868 -1.2743672887
H 1.5117466003 -2.8457255578 0.1934706463
H 0.1002314122 0.0598636003 -1.2913430567
H -0.1032099628 2.6443332285 0.2208982592
H 0.9998055303 2.2475900104 -1.1301665703
H 1.668582974 2.724154708 0.4621508002
H -2.2422418514 -0.2454526137 -1.4984674374
H -3.2267741428 0.0938523898 -0.0405930533
H -2.2508891032 -1.4036240906 -0.1353997889
*
