! pbe def2-sv(p) def2/J RI DEFGRID1 loosescf d4 GCP(DFT/SV(P)) printgap
%output
    printlevel normal
end
* xyz 0 1
C -3.5442066002 -1.5630943033 -0.9702463292
C -3.1741422617 -0.5967276514 0.1548109172
H -3.6576041421 -0.8926355254 1.0889204143
C -1.6745294895 -0.5430329927 0.3725777924
C -1.128404597 -0.9934146465 1.5904521825
C 0.2200181012 -0.9725180639 1.8040957022
C 1.1031875985 -0.492897154 0.8124133876
C 2.4939045353 -0.4559714032 1.0010308993
C 3.3325351471 0.0215791536 0.0175165892
C 2.7893568547 0.4821655011 -1.1988632384
C 1.437413772 0.4538675758 -1.4011756872
C 0.5570436608 -0.0298812042 -0.4140950161
C -0.8384421377 -0.066990419 -0.6039726477
O 4.6670860535 0.0123358469 0.3053571201
C 5.5820887613 0.4903436824 -0.6626363408
C -3.6103628904 0.8160732457 -0.1638351713
O -3.6375341975 1.3065467072 -1.2715491311
O -3.9276413433 1.49585034 0.9269881849
H -3.1678827192 -1.1919195785 -1.9196104822
H -3.1109266838 -2.5395423903 -0.7741711764
H -4.6244264137 -1.6602536912 -1.0432754932
H -1.7925094884 -1.361239294 2.3581795495
H 0.6317394318 -1.3227898527 2.7386734197
H 2.9233634657 -0.8044443711 1.9275392045
H 3.4347190096 0.8585027477 -1.9759699387
H 1.0252547126 0.8078974503 -2.3346705836
H -1.2446024147 0.2996204889 -1.5362739847
H 6.5624517922 0.3810392183 -0.2043492949
H 5.4013687026 1.5434131223 -0.8932444052
H 5.5376873404 -0.1048486525 -1.5783885845
H -4.1651179333 2.4252419725 0.7401947016
*
