! r2scan-3c def2/J RI DEFGRID2 scfconv6 printgap
%output
    printlevel normal
end
* xyz 0 1
C -2.4003686163 -0.9020111731 0.9912726173
C -2.046426571 -0.7459608473 -0.4826723638
C -1.4344049234 0.6288119372 -0.7761986208
C -0.116449521 0.8107781541 -0.0684822028
O 0.1301024772 1.6984604661 0.7238740125
O 0.7666613586 -0.1140782294 -0.4142734428
C 2.0680755057 -0.0562529863 0.1915039894
C 2.8574729805 -1.2679341234 -0.2645698768
H -1.5147010311 -0.7859366797 1.6134923615
H -3.1234941614 -0.1475395276 1.2922760953
H -2.8265191721 -1.8840417078 1.1781823999
H -2.9470901648 -0.8603174327 -1.0865998459
H -1.3357836652 -1.5191165901 -0.7769003914
H -2.1032137284 1.4267040414 -0.453300942
H -1.2502114561 0.7223577887 -1.847304661
H 2.5483440656 0.879517111 -0.1134128967
H 1.9445208003 -0.0347285424 1.2795379029
H 2.9402973726 -1.2704498185 -1.3473247014
H 3.8503580796 -1.2341908342 0.1714419393
H 2.3583438832 -2.1793283821 0.0510544665
*
