! r2scan-3c def2/J RI DEFGRID2 scfconv6 printgap
%output
    printlevel normal
end
%cpcm
    smd true
    smdsolvent "water"
end
* xyz 0 1
C -2.7418264111 0.2297836561 -0.1310819101
C -1.318157949 0.4513037582 0.3631558613
C -0.3381086891 -0.4392774881 -0.40207823
N 1.0437773295 -0.1506272759 -0.0353044196
O 1.3961560088 1.0090023265 0.0211724424
O 1.7809544574 -1.0909852263 0.1870943174
H -3.430312908 0.8501850419 0.4347213064
H -2.8295109907 0.4900599375 -1.1823616589
H -3.0335375913 -0.8093814787 -0.0049077791
H -1.2602976377 0.2229316802 1.4285325631
H -1.0309674717 1.4945606227 0.2244319922
H -0.5129559762 -1.49981998 -0.2168919055
H -0.430358197 -0.2354560619 -1.4730244967
*
