! r2scan-3c def2/J RI DEFGRID2 scfconv6 printgap
%output
    printlevel normal
end
* xyz 0 1
C -3.7830403709 0.9398036264 -1.6422144405
C -3.3077142666 -0.1014916351 -0.6279094675
H -3.5831106915 -1.1073210901 -0.9526192044
C -1.8088672569 -0.0392184416 -0.4340977054
C -1.2031281298 1.0987693895 0.0869471168
C 0.166765775 1.1582526119 0.2479138359
C 0.9892918705 0.0858370645 -0.0970395643
C 0.3552197771 -1.0396446408 -0.6117775904
C -1.0120373006 -1.1199644743 -0.7836671533
F 1.0985460382 -2.1188438786 -0.9971426398
C 2.448017987 0.1627637138 0.080181077
C 3.1606578068 -0.8930656747 0.6421742479
C 4.5299303268 -0.799725719 0.81298342
C 5.2053286177 0.3444544208 0.4227295552
C 4.5039406751 1.3993065934 -0.1381648314
C 3.1346601011 1.3119512215 -0.3059671739
C -3.9359872429 0.133111442 0.7323804535
O -4.1787944995 1.2193976219 1.2077329995
O -4.1615955501 -1.0005145451 1.3738872906
H -3.6337419526 1.9412544385 -1.248529508
H -3.2246349654 0.8338572478 -2.5675105313
H -4.8415900568 0.8054979868 -1.8480390722
H -1.8139580299 1.9381796213 0.3815966909
H 0.6194011059 2.0434135676 0.6663452261
H -1.4360350627 -2.0226399487 -1.1940131336
H 2.6400016169 -1.7851766619 0.9570766219
H 5.070446 -1.6241751367 1.2529945082
H 6.2743074348 0.4135715481 0.5548333014
H 5.0260615632 2.2923551776 -0.4467837904
H 2.5915433735 2.128730456 -0.7571176985
H -4.5317445533 -0.8670529799 2.2687856512
*
