! r2scan-3c def2/J RI DEFGRID2 scfconv6 printgap
%output
    printlevel normal
end
%cpcm
    smd true
    smdsolvent "water"
end
* xyz 0 1
C -3.3181982667 -1.0574906222 0.2511375909
C -1.8698302158 -0.8216993576 -0.1571931322
C -1.3560714063 0.5257214866 0.3726576075
C 0.0633808525 0.722883523 -0.0853901965
O 0.388243112 1.2786407601 -1.1145642351
O 0.9272598461 0.1833392686 0.7648293479
C 2.3255270912 0.2105753077 0.4328843543
C 2.707447897 -0.9875982679 -0.4227708367
H -3.9593334818 -0.2772635594 -0.1507446968
H -3.6620337347 -2.0159511612 -0.1278394168
H -3.412646907 -1.0591056355 1.3338018683
H -1.7856022976 -0.8297985087 -1.2460517247
H -1.2400805953 -1.6212233336 0.2374062893
H -1.3845414112 0.5274794473 1.4613650394
H -1.9683209673 1.3351333707 -0.0237916213
H 2.5402530323 1.1449262815 -0.0945745443
H 2.8377724959 0.1914391936 1.3951859732
H 2.4448958375 -1.9107839813 0.0866647598
H 2.1834847611 -0.9465290666 -1.3752080061
H 3.7764238655 -0.9715251703 -0.6078925317
*
