! r2scan-3c def2/J RI DEFGRID2 scfconv6 printgap
%output
    printlevel normal
end
* xyz 0 1
C 2.4332623654 -0.2525812507 0.1397440026
C 1.0144476112 0.2344697602 0.4095946522
C 0.0624546281 -0.1421498535 -0.7244864391
C -1.3628124976 0.3944616288 -0.5168796246
N -2.0936789785 -0.1694437956 0.6073206769
H 2.8186404573 0.188624368 -0.7766497802
H 3.0936365711 0.0221462086 0.9585523901
H 2.4508138033 -1.3349173947 0.0316947938
H 0.6629997865 -0.200958917 1.3482834639
H 1.0186006167 1.3207842559 0.5274402155
H 0.4476491595 0.2613499719 -1.6630421105
H 0.0250963728 -1.230887757 -0.8215399916
H -1.9516853238 0.1936154873 -1.4167071751
H -1.3257901789 1.4779702059 -0.3742289346
H -1.6117756167 0.0461986453 1.4733029993
H -2.1221957797 -1.1801104183 0.5198022387
*
