! pbe def2-sv(p) def2/J RI DEFGRID1 loosescf d4 GCP(DFT/SV(P)) printgap
%output
    printlevel normal
end
* xyz 0 1
C -3.256895262 -1.1773474053 0.3120944294
C -1.7561419479 -0.9206208056 0.2402543545
C -1.466721282 0.5339082215 -0.1185475666
C -0.0040370925 0.8801350787 -0.2116110007
O 0.4089753146 1.992201932 -0.4841788352
O 0.7972790932 -0.1433902947 0.031859322
C 2.2143860145 0.0892543666 -0.0332951615
C 2.9231292404 -1.2193872919 0.2565961197
H -3.7270454355 -0.966574221 -0.6452951523
H -3.45007751 -2.2151284881 0.5689883076
H -3.7170937947 -0.5446024099 1.0670123902
H -1.3062565555 -1.5737041707 -0.5083983241
H -1.2961414344 -1.153985314 1.201178646
H -1.9070390938 1.2079506561 0.6204700231
H -1.9164247325 0.7899627634 -1.0811339545
H 2.4564568481 0.4722714883 -1.0301610505
H 2.4713348644 0.8624999739 0.6981929657
H 3.9958981151 -1.0631952571 0.2135854043
H 2.6520783815 -1.5785549862 1.2447829839
H 2.6396633251 -1.9671000118 -0.4779589006
*
