! pbe def2-sv(p) def2/J RI DEFGRID1 loosescf d4 GCP(DFT/SV(P)) printgap
%output
    printlevel normal
end
* xyz 0 1
C -3.3375839504 -1.093938791 0.2695969573
C -1.9741647698 -0.489597072 0.5795451176
C -1.3398150614 0.1215099458 -0.6789169009
C 7.68399e-05 0.7089907984 -0.3286872323
O 0.2061202026 1.8819474235 -0.0886211097
O 0.9425566374 -0.2200016432 -0.2714952012
C 2.26795544 0.1849984495 0.1111004745
C 3.0914577798 -1.0634108732 0.3620532452
H -4.0134420408 -0.3337561956 -0.1136167542
H -3.2444711491 -1.8806246279 -0.4745288667
H -3.7715354834 -1.5189594567 1.1704496079
H -1.3089108455 -1.2605421024 0.9720590998
H -2.0779497857 0.2881640311 1.339136235
H -1.9771298885 0.9139951123 -1.0698672767
H -1.2012452275 -0.6555095385 -1.4297241093
H 2.6879219756 0.7897147972 -0.6992573178
H 2.1943704157 0.8146992965 1.0038458615
H 4.1024947682 -0.7780417028 0.6327938868
H 2.6547829325 -1.6436564829 1.1694393189
H 3.1184809711 -1.6754760721 -0.534380484
*
