! r2scan-3c def2/J RI DEFGRID2 scfconv6 printgap
%output
    printlevel normal
end
* xyz 0 1
C -3.8870946745 0.1987882588 -1.9575626881
C -3.3122404992 -0.3504719885 -0.6553706625
H -3.5750175168 -1.4033641167 -0.5300466003
C -1.8088346355 -0.2138979604 -0.5348301983
C -1.1111730557 0.8368586623 -1.1172135859
C 0.2587050552 0.9410299337 -0.9695629038
C 0.9875956616 0.0172561622 -0.2224353881
C 0.2609583212 -1.0147241119 0.3623438377
C -1.1044407756 -1.1448148432 0.2191533109
F 0.9095815403 -1.9703703853 1.0921897879
C 2.4464994527 0.1409815549 -0.0760182356
C 3.0601549961 -0.0106922961 1.1643677652
C 4.4318299263 0.1180637363 1.2858208128
C 5.2078081096 0.3946203044 0.1727020806
C 4.6050601799 0.5461817021 -1.0654210894
C 3.2337892055 0.424280814 -1.1899594303
C -3.857672008 0.4030378817 0.5460995802
O -4.1197403459 1.5842580977 0.5613535292
O -3.9740729325 -0.3763578944 1.6073554669
H -4.9131504894 -0.1382695059 -2.0780653831
H -3.8900920739 1.2855501958 -1.9388334401
H -3.2999117324 -0.1485209662 -2.8021686803
H -1.6377886756 1.582889863 -1.6883401056
H 0.7839175101 1.7664388942 -1.4239351027
H -1.606250609 -1.9714625579 0.6973350971
H 2.4605025953 -0.2183204624 2.038202471
H 4.8953552057 0.0020521264 2.2539168311
H 6.2784631495 0.4906332423 0.2698073496
H 5.2059452969 0.7581429434 -1.9368460279
H 2.7665992971 0.5277093532 -2.1577684875
H -4.2814514909 0.1017834321 2.4023647718
*
