! r2scan-3c def2/J RI DEFGRID2 scfconv6 printgap
%output
    printlevel normal
end
%cpcm
    smd true
    smdsolvent "water"
end
* xyz 0 1
C -1.9883491147 0.6401320646 0.5768510182
C -1.4902738991 -0.574645111 -0.1965183415
C -0.216534539 -0.2598628874 -0.9878165043
N 0.8881177028 -0.0169410204 -0.0670386995
O 1.4205920686 1.0745661489 -0.0827351846
O 1.2162076534 -0.9166662347 0.6789849875
H -2.1943997817 1.4677513583 -0.0973341156
H -2.9026498971 0.3950795774 1.1094439832
H -1.2504013018 0.9693131115 1.3065337653
H -2.2541887929 -0.9013811293 -0.9007909636
H -1.2806873427 -1.3959785452 0.4908655668
H 0.0542859681 -1.1221117612 -1.6001341936
H -0.3365107342 0.6325494785 -1.6026313816
*
