! r2scan-3c def2/J RI DEFGRID2 scfconv6 printgap
%output
    printlevel normal
end
%cpcm
    smd true
    smdsolvent "water"
end
* xyz 0 1
C -2.643277058 -1.2274327603 -0.3410678049
C -2.5738223826 0.2203165669 0.1295991104
C -1.2563473584 0.5150212131 0.8498268712
C -0.0860584061 0.4752828456 -0.0994864604
O -0.0710801072 0.9632236706 -1.2110758592
O 0.9537946677 -0.1500079044 0.435399848
C 2.1702705326 -0.2314834722 -0.3271049883
C 3.3183069251 -0.4892290704 0.630296914
H -2.5470199324 -1.9089549531 0.5007971469
H -3.5912544942 -1.4198228682 -0.8360965397
H -1.8409274398 -1.4341884741 -1.0469559906
H -3.4018518819 0.4254039505 0.8084416806
H -2.6578909755 0.8883594558 -0.7295614897
H -1.0742779785 -0.1967891706 1.6542899855
H -1.2878322103 1.5220292153 1.271278364
H 2.0622119529 -1.0456090139 -1.0508718057
H 2.2976766058 0.7059451482 -0.8783925164
H 4.2433008399 -0.5670560281 0.068724058
H 3.4000478186 0.3251011402 1.3442870668
H 3.1477034322 -1.4144257738 1.1723856361
*
