! r2scan-3c def2/J RI DEFGRID2 scfconv6 printgap
%output
    printlevel normal
end
%cpcm
    smd true
    smdsolvent "water"
end
* xyz 0 1
C -3.717279603 0.2603013043 -1.8333509338
C -3.2512688956 -0.5400908004 -0.6148532083
H -3.5283095914 -1.5916583523 -0.7536705809
C -1.754743775 -0.4574398244 -0.4492002395
C -0.9323706737 -1.5362722574 -0.7451778329
C 0.4396605963 -1.4381288067 -0.6156803604
C 1.0489503526 -0.2602551894 -0.1867805898
C 0.2009477453 0.8023363205 0.1079568017
C -1.1701370734 0.725344577 -0.0160214206
F 0.7236364813 1.9789648219 0.5673065447
C 2.5115360113 -0.1666462773 -0.0557339893
C 3.2051852469 0.9434388469 -0.5302140682
C 4.581523028 1.0109767892 -0.4125883351
C 5.2825519359 -0.0250421924 0.1813305929
C 4.600156706 -1.1329491349 0.6568395212
C 3.2249641393 -1.2060978548 0.5373114337
C -3.937988799 -0.1100652802 0.66887232
O -3.5208642646 -0.377976286 1.7766730831
O -5.0557610223 0.5625238584 0.4743477856
H -3.2097877365 -0.1073283979 -2.7205942706
H -4.7896931083 0.1565645001 -1.9666916891
H -3.4822903814 1.3137735259 -1.7094815401
H -1.3679865953 -2.4640722327 -1.0819084918
H 1.0641183888 -2.2820360404 -0.8635144096
H -1.7669207702 1.5867619262 0.2408409779
H 2.6665503181 1.7513090405 -1.0027867012
H 5.1074703265 1.8762837871 -0.7869791648
H 6.3563831354 0.0314874996 0.2744239178
H 5.1414300951 -1.9417092451 1.1240928794
H 2.6929946687 -2.0626096954 0.9233995028
H -5.5000601222 0.8080408561 1.3092411829
*
