! r2scan-3c def2/J RI DEFGRID2 scfconv6 printgap
%output
    printlevel normal
end
* xyz 0 1
C -2.781662912 -1.1497239983 -0.0884446474
C -2.5235748313 0.3515580751 -0.0416267446
C -1.2240428486 0.6772944893 0.6957948988
C -0.011679123 0.2347274288 -0.0833305489
O 0.1044482144 0.2961215504 -1.2890825067
O 0.9355399794 -0.2318150255 0.7234952798
C 2.1861024535 -0.6444206938 0.1470211192
C 3.1372424289 0.5331165793 -0.0016104284
H -3.7148309354 -1.3579819154 -0.6048905125
H -1.9769543483 -1.6547095114 -0.6194872901
H -2.8428695492 -1.5595044006 0.9169794489
H -3.3517846007 0.8498920985 0.4626103104
H -2.4539022347 0.7410850331 -1.0589155264
H -1.1936206437 0.208512968 1.6789843192
H -1.1353488543 1.7584514796 0.8244654259
H 2.577911509 -1.3859876846 0.8436553567
H 1.9869249289 -1.1038811224 -0.8259523591
H 2.7313677476 1.2529485055 -0.7089331069
H 3.2803061398 1.0215445289 0.9584089245
H 4.0941746312 0.1784181446 -0.3702421317
*
