! pbe def2-sv(p) def2/J RI DEFGRID1 loosescf d4 GCP(DFT/SV(P)) printgap
%output
    printlevel normal
end
* xyz 0 1
C 2.4635546576 -1.0930471954 0.145030534
C 2.5630397844 0.4042966761 -0.121315764
C 1.3734662301 1.2094398146 0.4051718467
C 0.0379971186 0.8726577333 -0.2775852146
C -0.78899795 -0.0975020351 0.5487587506
Cl -2.3306823238 -0.4900270097 -0.2952506956
H 3.3827318935 -1.5879969044 -0.1600099865
H 1.6441575577 -1.5358843211 -0.4146740105
H 2.3092531638 -1.2829022388 1.2048055893
H 3.4686165247 0.7865747354 0.3550441069
H 2.6616662838 0.5730708884 -1.1957491256
H 1.5904306262 2.2662365461 0.2445841891
H 1.2805505732 1.0542132533 1.4813341906
H 0.2241014356 0.4461876981 -1.2642397894
H -0.5449837306 1.7840858548 -0.4186283638
H -0.2810985028 -1.046071683 0.7044740289
H -1.0724407275 0.3368440996 1.5060201957
*
