! r2scan-3c def2/J RI DEFGRID2 scfconv6 printgap
%output
    printlevel normal
end
%cpcm
    smd true
    smdsolvent "water"
end
* xyz 0 1
C -3.7757916126 0.5563045368 -1.7582819509
C -3.2848748301 -0.4466076826 -0.7128182681
H -3.5528888681 -1.4633356477 -1.0124918123
C -1.7845275853 -0.3775586843 -0.5308954218
C -0.9853738496 -1.4823805899 -0.7959621789
C 0.3859062518 -1.4183791032 -0.6396757232
C 1.0176895979 -0.2513860431 -0.2132816795
C 0.1919477476 0.8364989052 0.0513486769
C -1.1786758165 0.7938079179 -0.0947003898
F 0.7362094917 2.0031164832 0.5090207337
C 2.4788512711 -0.1951487261 -0.0496077406
C 3.213579104 0.8881850337 -0.5240136182
C 4.5878644645 0.9208176182 -0.3723750908
C 5.2453473689 -0.1231097142 0.2565790232
C 4.5216730239 -1.2044241398 0.7323009706
C 3.1485294724 -1.2432417357 0.5781960867
C -3.9102330095 -0.2137749137 0.6491161978
O -4.2172418857 -1.1131477508 1.4035397361
O -4.0612680987 1.0590084764 0.9578211733
H -3.5525815356 1.5733386071 -1.4522148069
H -3.283768295 0.3574507701 -2.7060539877
H -4.8499494294 0.460122434 -1.8917781913
H -1.4394534176 -2.4019024272 -1.1306059092
H 0.991865657 -2.2816000269 -0.8657153725
H -1.7575984448 1.6720914395 0.1426371894
H 2.7089706418 1.70180834 -1.0234071619
H 5.1465707266 1.7649439591 -0.7475335524
H 6.3175789215 -0.0936123035 0.3765464856
H 5.0288862324 -2.0191883045 1.226605807
H 2.5841687712 -2.07915734 0.9636806302
H -4.4481011588 1.1893559395 1.8454828019
*
