! r2scan-3c def2/J RI DEFGRID2 scfconv6 printgap
%output
    printlevel normal
end
%cpcm
    smd true
    smdsolvent "water"
end
* xyz 0 1
C -3.4173483217 -0.9831072799 0.3283654332
C -2.0752521414 -0.3183532558 0.6062768779
C -1.2946052342 -0.0800628589 -0.695338139
C 0.0094971251 0.5962690505 -0.371861998
O 0.1832632378 1.7984001102 -0.3474219027
O 0.9556646442 -0.2819296142 -0.0753567844
C 2.2512190869 0.2146690354 0.3018497833
C 3.2426267371 -0.9296834101 0.2136396485
H -3.9552734139 -1.1427964785 1.2587335435
H -4.025923212 -0.3570640476 -0.3189073434
H -3.2723002228 -1.9444679818 -0.1572632237
H -1.4791475157 -0.9511868735 1.2664153395
H -2.2321248441 0.6399871455 1.105988906
H -1.8700580196 0.566752022 -1.3569129096
H -1.0913896382 -1.0337214417 -1.1805347437
H 2.5148433867 1.0393150327 -0.3684930314
H 2.1816734347 0.6095348529 1.3205674043
H 3.2903464198 -1.304888238 -0.8044588616
H 4.2245920447 -0.5778528438 0.5119202976
H 2.9350341405 -1.7375693538 0.8707904483
*
