! pbe def2-sv(p) def2/J RI DEFGRID1 loosescf d4 GCP(DFT/SV(P)) printgap
%output
    printlevel normal
end
* xyz 0 1
C -3.815104855 0.9269500751 -1.6283787404
C -3.3078645195 -0.1267828762 -0.6422876365
H -3.5660091895 -1.128174984 -0.9971778299
C -1.8086361055 -0.0504902502 -0.4535826326
C -1.1957266467 1.1146308877 -0.0058521396
C 0.1738627472 1.1748210882 0.1570452919
C 0.9905113564 0.0759848116 -0.1086607723
C 0.350118577 -1.0767447756 -0.5496539968
C -1.0165809809 -1.1570678349 -0.7251750533
F 1.0868809838 -2.185864296 -0.8564101924
C 2.4487277242 0.1540863057 0.0714980202
C 3.1498097152 -0.8658083959 0.7091974361
C 4.5189350106 -0.7715060816 0.8807586303
C 5.205549 0.3376782638 0.4160287018
C 4.5156167266 1.3566254661 -0.2203195925
C 3.1465359182 1.268559274 -0.3892262426
C -3.9315815968 0.0240213103 0.7325323983
O -4.2578917179 -0.9189885075 1.4231328076
O -4.055698241 1.2749054059 1.1264009156
H -4.8852867891 0.8111094836 -1.7777294885
H -3.6210551618 1.9281364559 -1.2580598725
H -3.3111423688 0.7989586331 -2.582096436
H -1.7960320917 1.9799872132 0.2251783432
H 0.6317301959 2.0827795331 0.5167029371
H -1.4449826707 -2.0829855704 -1.0752267674
H 2.6200198263 -1.7298178355 1.0823569724
H 5.0503726703 -1.5678700041 1.3797302108
H 6.2744909857 0.4068058717 0.5484387305
H 5.0468087338 2.2216725931 -0.5875540955
H 2.6125458364 2.0560548117 -0.8992767329
H -4.4352314225 1.3547513449 2.0232320613
*
