! r2scan-3c def2/J RI DEFGRID2 scfconv6 printgap
%output
    printlevel normal
end
%cpcm
    smd true
    smdsolvent "water"
end
* xyz 0 1
C -3.3807670727 0.392651331 0.7739398277
C -2.7873801142 -0.5612400824 -0.2568497579
C -1.3928146996 -0.1489506013 -0.7266611071
C -0.3384521164 -0.2694753028 0.3727973739
C 1.0235512717 0.1540494985 -0.1080342855
O 1.2364683012 0.9357428755 -1.0107386519
O 1.9833416278 -0.4352949735 0.5991807484
C 3.351626227 -0.128764971 0.310486318
H -2.8172344384 0.369955957 1.7027491701
H -3.3786677895 1.4110710993 0.3923217489
H -4.4072464955 0.1120764256 0.9962195342
H -2.743593943 -1.5686711542 0.1612015102
H -3.4444784049 -0.5921919065 -1.1278857724
H -1.4107737788 0.8816103714 -1.0862395072
H -1.0957696975 -0.7803615641 -1.5667471406
H -0.2712079315 -1.2885730663 0.7539568391
H -0.5924994288 0.3865943861 1.2082940599
H 3.8603954169 -1.0680937305 0.1044647856
H 3.7805161595 0.3501646101 1.1888893019
H 3.407134074 0.5363683729 -0.5518930176
*
