! pbe def2-sv(p) def2/J RI DEFGRID1 loosescf d4 GCP(DFT/SV(P)) printgap
%output
    printlevel normal
end
* xyz 0 1
C -3.6581665249 -0.6189846933 0.2317509515
C -2.4049489636 0.1296676409 -0.2028375547
C -1.1470595163 -0.4861569675 0.4076216684
C 0.1116748037 0.1565082469 -0.1128984516
O 0.2275707952 0.6922327881 -1.1948760598
O 1.1000368564 0.0602821031 0.77047387
C 2.3958516763 0.5703580398 0.4123365054
C 3.2309595332 -0.4985955277 -0.275622494
H -4.5412160793 -0.1575379423 -0.2013276375
H -3.6161796371 -1.6551523753 -0.0942825179
H -3.7555394083 -0.6011704337 1.314342489
H -2.4752484932 1.1760628379 0.1002811862
H -2.3125593238 0.1105793207 -1.2902539503
H -1.0931730479 -1.5457054267 0.1434900951
H -1.1499831297 -0.4133396143 1.4951271068
H 2.2606517986 1.4366930057 -0.2422271687
H 2.8437409976 0.8759337367 1.3584172319
H 2.7694124125 -0.7827508922 -1.2187124258
H 4.2237707307 -0.1078080819 -0.4730332363
H 3.3097923888 -1.3769078011 0.359204762
*
