! r2scan-3c def2/J RI DEFGRID2 scfconv6 printgap
%output
    printlevel normal
end
%cpcm
    smd true
    smdsolvent "water"
end
* xyz 0 1
C -2.4784595245 -0.9755457104 0.9439626952
C -2.5538550578 0.0796050765 -0.1529297169
C -1.2892916847 0.0846776036 -1.0179035591
C -0.0946185595 0.5354043432 -0.2172602596
O -0.0329787923 1.5682954119 0.4185149219
O 0.9016591293 -0.3354554806 -0.2893287881
C 2.1238451529 -0.0354206232 0.4060727973
C 3.232600909 -0.8812515933 -0.1904238857
H -3.3937017815 -0.9793161117 1.5297528902
H -2.337019387 -1.9643993528 0.5144412667
H -1.6452597414 -0.7681287921 1.613068935
H -2.6730879466 1.0677329225 0.2955146068
H -3.4159987776 -0.1153869854 -0.7910628752
H -1.4157389521 0.7908255021 -1.8403084981
H -1.084575374 -0.9065819443 -1.4203231609
H 2.3254802865 1.0362270343 0.3067878275
H 1.9745854637 -0.2607556642 1.4669742068
H 2.9862022394 -1.9345343367 -0.0956918811
H 3.3589874609 -0.6442235414 -1.2428056842
H 4.1599306173 -0.6803341275 0.335738703
*
