! r2scan-3c def2/J RI DEFGRID2 scfconv6 printgap
%output
    printlevel normal
end
* xyz 0 1
C -1.03944e-05 -0.1242293146 -1.43e-05
C -1.2432674457 0.7468294035 -0.1129308848
Cl -2.7069477365 -0.2878758591 -0.2477151081
C 1.2432348015 0.7468235709 0.1130899046
Cl 2.70696678 -0.2878455561 0.2476607113
H -0.0799935939 -0.7650599703 0.8790881135
H 0.0799190158 -0.764737934 -0.8793174927
H -1.3840071143 1.3646993787 0.7715539354
H -1.2211056217 1.3661600778 -1.0073797876
H 1.2211522097 1.3660772132 1.0076072185
H 1.3838781285 1.3648676361 -0.7713631486
*
