! pbe def2-sv(p) def2/J RI DEFGRID1 loosescf d4 GCP(DFT/SV(P)) printgap
%output
    printlevel normal
end
* xyz 0 1
C -3.6665601903 -0.3886054335 0.4155400338
C -2.389127099 0.115525945 -0.2433119663
C -1.1509931581 -0.5128539827 0.3900109485
C 0.1279915983 -0.0023343219 -0.219438458
O 0.2105172652 0.9008210097 -1.0242385116
O 1.177879433 -0.6793662321 0.2374125966
C 2.4884994538 -0.2976526586 -0.2137162115
C 3.0635830164 0.8142456546 0.6503493012
H -3.7471912184 -1.4679254378 0.313514028
H -3.6731730988 -0.1405347442 1.4739391154
H -4.53585407 0.0671165975 -0.0501362072
H -2.3226279259 1.2010783611 -0.1513069467
H -2.4021043404 -0.1172328713 -1.3096660175
H -1.1642728476 -1.5990692377 0.2869281451
H -1.1143981538 -0.2894126347 1.4586845669
H 3.0818262533 -1.2090337185 -0.1347707156
H 2.4188699109 0.0222259866 -1.2578688467
H 3.0704791289 0.5109015831 1.6937231722
H 4.0784309688 1.0288769139 0.3321627489
H 2.4629621972 1.7151467364 0.5464687523
*
