! pbe def2-sv(p) def2/J RI DEFGRID1 loosescf d4 GCP(DFT/SV(P)) printgap
%output
    printlevel normal
end
* xyz 0 1
C -2.0244586576 -0.8129753878 -0.4391751143
C -1.5215031403 0.248179058 0.5336451337
C -0.2845031522 0.9619953185 0.0048996029
N 0.8993830892 0.1048984126 -0.0146706613
O 1.7965001194 0.4188771833 -0.7748392887
O 0.9527772281 -0.8517774836 0.7265882456
H -2.9272869774 -1.2766262445 -0.0527964556
H -2.2513303376 -0.3727762915 -1.4071774087
H -1.2789729964 -1.5934141997 -0.5769551493
H -1.286590326 -0.2166947553 1.4918213482
H -2.2987889623 0.994060956 0.695520336
H -0.4224557491 1.3358122216 -1.0116849892
H -0.0287337882 1.8104462971 0.6469475022
*
