! r2scan-3c def2/J RI DEFGRID2 scfconv6 printgap
%output
    printlevel normal
end
* xyz 0 1
C -3.0063752126 -0.5967269784 -0.7836788164
C -2.4981316687 0.3746550693 0.2748189103
C -1.1940289824 -0.096937546 0.9277336219
C 0.0088902918 0.0576980149 0.0321229062
O 0.0463717452 -0.1630564055 -1.1595432442
O 1.0597978693 0.4843362547 0.7278926857
C 2.3152957422 0.645808245 0.0468441746
C 3.1037108941 -0.6549676359 0.0361891213
H -3.916886871 -0.2159116415 -1.238698462
H -2.2591320571 -0.7287322169 -1.5615261417
H -3.2205732804 -1.566253033 -0.3402434937
H -3.2509177406 0.4837173981 1.0568971899
H -2.3386690407 1.3551248783 -0.1780794803
H -1.2781390303 -1.1575128286 1.1763591755
H -0.9926454281 0.4558127702 1.8451290604
H 2.1169853923 0.9853830919 -0.9743857316
H 2.836048336 1.4209976948 0.6097706124
H 3.2436654927 -1.0153810233 1.0517287123
H 2.5701417381 -1.4094970857 -0.5376644819
H 4.0728133556 -0.4845806932 -0.4212260383
*
