! r2scan-3c def2/J RI DEFGRID2 scfconv6 printgap
%output
    printlevel normal
end
%cpcm
    smd true
    smdsolvent "water"
end
* xyz 0 1
C -3.5689273028 -1.0516008251 0.4303014607
C -2.6713460935 0.1172279461 0.0415827941
C -1.1931006242 -0.2604211963 0.1185232498
C -0.2992133708 0.9131744465 -0.2699424911
C 1.1784084444 0.6236739703 -0.2197969934
O 2.0317298154 1.4529199017 -0.4722883311
O 1.4491175606 -0.6249127447 0.1276151401
C 2.8139834355 -1.044972495 0.2146322766
H -4.6157349128 -0.7651825356 0.370441831
H -3.4044343665 -1.8957323385 -0.2351398296
H -3.3574384331 -1.3719954021 1.4476775734
H -2.9108803061 0.4358951977 -0.974872663
H -2.8646870262 0.9601849454 0.7080568021
H -0.9970051941 -1.102310968 -0.5471670274
H -0.9513522519 -0.5805693574 1.1331931299
H -0.4782788512 1.7691213801 0.3853322893
H -0.5221551378 1.2466364154 -1.2865982246
H 2.9818541953 -1.8017310162 -0.5498321121
H 2.9607529915 -1.468953832 1.2057350992
H 3.475778364 -0.1925693183 0.0571252953
*
