! r2scan-3c def2/J RI DEFGRID2 scfconv6 printgap
%output
    printlevel normal
end
* xyz 0 1
C -3.6600397206 -0.7100673678 0.2477735054
C -2.4270184241 0.1829577422 0.203468074
C -1.1662427725 -0.6206071014 -0.1107782655
C 0.0439151416 0.2609905449 -0.2735999176
O 0.0225540198 1.426945385 -0.6104038235
O 1.1632479975 -0.4009775893 -0.0101580074
C 2.4159062941 0.2943722341 -0.1380353949
C 3.4582689826 -0.4469482499 0.6774161624
H -3.8142127475 -1.1959160149 -0.7123832378
H -3.5464333079 -1.4776915263 1.0091061624
H -4.5426672478 -0.1211391809 0.4810748132
H -2.300599602 0.687196644 1.1634114295
H -2.5485514941 0.9563575676 -0.5570706278
H -1.2982310102 -1.1560232228 -1.0547244074
H -0.9559741983 -1.3583629911 0.6635724574
H 2.6819834097 0.3203543302 -1.1995226722
H 2.2781268922 1.3235050592 0.2093784963
H 3.1724493445 -0.4625545861 1.7251596986
H 3.5464186115 -1.4695767149 0.3231120468
H 4.4157878939 0.0528580245 0.5751566077
*
