! r2scan-3c def2/J RI DEFGRID2 scfconv6 printgap
%output
    printlevel normal
end
%cpcm
    smd true
    smdsolvent "water"
end
* xyz 0 1
C -4.4748286023 -1.229894938 -0.2682157493
C -3.6538335298 -2.3491186353 -0.268527127
C -2.2828856661 -2.2019975489 -0.1675518781
C -1.7073153589 -0.9372285241 -0.0663682655
C -2.536509696 0.1899623399 -0.0669338697
C -3.9176806615 0.0306709012 -0.1674052559
C -1.9693882164 1.540230168 0.0377905098
O -2.6873418148 2.5385631118 0.0554579917
C -0.5018827747 1.6407490472 0.1158769401
C 0.0359149469 2.9147129964 0.1831559956
C 1.4152478376 3.0956424544 0.2501243317
C 2.2516015744 2.0122119236 0.2532821516
C 1.747020493 0.6889758199 0.1936905829
C 0.3324055343 0.4980947064 0.1205917131
C -0.2380847311 -0.8290796111 0.044063562
O 0.4404000932 -1.8705991145 0.0662881484
N 2.5801923812 -0.3542330493 0.2234837821
C 4.0209302358 -0.2884041207 0.2293048219
C 4.5905490154 -1.7020741743 0.292880981
O 4.2753849542 -2.3649757255 -0.9153975237
H -5.544800136 -1.3416306805 -0.3462375399
H -4.0836316845 -3.335419276 -0.3470086798
H -1.6269597874 -3.0599464111 -0.1648065628
H -4.53171382 0.9191856266 -0.1640508533
H -0.639622878 3.7562620507 0.1789287025
H 1.8209931176 4.0939696784 0.29726322
H 3.3171129681 2.1599988224 0.2999645975
H 2.1568639255 -1.2703825445 0.0938026901
H 4.3715045633 0.275091759 1.0993023577
H 4.3856423427 0.1921107057 -0.6860946766
H 4.1555624828 -2.231762733 1.1494047121
H 5.6782772365 -1.6411363853 0.4242705463
H 4.5766840095 -3.2811348783 -0.8716578798
*
