! r2scan-3c def2/J RI DEFGRID2 scfconv6 printgap
%output
    printlevel normal
end
%cpcm
    smd true
    smdsolvent "water"
end
* xyz 0 1
C -3.4134568335 -1.0032886585 0.2838251497
C -2.0611676683 -0.6435819138 -0.3180550988
C -1.3108286916 0.3631973839 0.5671739429
C 0.0055580057 0.7027607122 -0.0767780111
O 0.1884854158 1.6287413387 -0.8416325733
O 0.9527413879 -0.1592630536 0.2609406406
C 2.2595987746 0.0085028901 -0.3147877401
C 3.2335133739 -0.8598960633 0.4580722841
H -3.9294008015 -1.7150190171 -0.3547131504
H -3.2856599958 -1.4489738843 1.2667542832
H -4.0338807545 -0.1165040924 0.3841047977
H -2.2003899732 -0.2086137112 -1.3100618872
H -1.4531654011 -1.5437999057 -0.4251215348
H -1.1261068656 -0.0764871218 1.5463301308
H -1.8978599107 1.2757623263 0.6661715335
H 2.2086235548 -0.2822538445 -1.3690571405
H 2.5263742108 1.0692980172 -0.264780762
H 4.2247624371 -0.7568884242 0.0292761738
H 3.2600908575 -0.5547105658 1.5000073952
H 2.9251928176 -1.899720004 0.4054251456
*
