! pbe def2-sv(p) def2/J RI DEFGRID1 loosescf d4 GCP(DFT/SV(P)) printgap
%output
    printlevel normal
end
* xyz 0 1
C -2.2224566063 -1.5001393098 -0.0035003012
C -2.4639660995 0.0031593564 0.060084807
C -1.3521983286 0.782543834 -0.647144538
C -0.0400122783 0.646685024 0.0826470973
O 0.1052962844 0.7703301711 1.2808117303
O 0.956986101 0.3931331431 -0.7570645909
C 2.283195332 0.236276144 -0.2252711364
C 2.5515584593 -1.2135807155 0.1483661767
H -1.2913480726 -1.7550552752 0.4991118451
H -3.0318127299 -2.0352131786 0.4859423132
H -2.1596609093 -1.8346635428 -1.0362692631
H -2.5048068068 0.3232746193 1.102822543
H -3.4173558516 0.242167617 -0.4115600232
H -1.6034259488 1.8449771035 -0.6597786705
H -1.216679857 0.4381944232 -1.6717707278
H 2.9441199061 0.5681252728 -1.026609263
H 2.3880124837 0.8863346626 0.6487409377
H 3.5798255365 -1.3158220181 0.4794656911
H 1.8893941741 -1.5193786215 0.9555671215
H 2.3842065109 -1.8579736399 -0.7104310836
*
