! pbe def2-sv(p) def2/J RI DEFGRID1 loosescf d4 GCP(DFT/SV(P)) printgap
%output
    printlevel normal
end
* xyz 0 1
C 1.6569884524 -0.7538923489 0.5140119645
C 1.3646843926 0.5319490429 -0.2512165863
C -0.0349969798 0.5830463341 -0.8672588745
C -1.1776284544 0.5586013765 0.1558928062
N -1.7120922113 -0.7897236904 0.3107298835
H 1.0392360754 -0.8265141017 1.4061443106
H 1.4709187186 -1.6214616688 -0.1151925781
H 2.6981010005 -0.7748722865 0.8285011761
H 1.4922191537 1.386658139 0.4179642574
H 2.0941411148 0.6347837779 -1.0577129815
H -0.1098931806 1.4980360253 -1.4569551203
H -0.1725998664 -0.2615946404 -1.5436800492
H -2.0030844616 1.1793798018 -0.2048033939
H -0.8261804767 0.9975748042 1.1055933123
H -2.4607458448 -0.7860210679 0.9942398083
H -0.9874723628 -1.4112319932 0.6532673651
*
