! r2scan-3c def2/J RI DEFGRID2 scfconv6 printgap
%output
    printlevel normal
end
%cpcm
    smd true
    smdsolvent "water"
end
* xyz 0 1
C 2.3926805269 -0.3208104577 -0.1772258075
C 0.9953750159 0.239930304 -0.4110449565
C 0.0621758536 -0.0524541301 0.7608697061
C -1.3590143075 0.4450502572 0.5014857168
N -1.9479332608 -0.2471656304 -0.6378952668
H 3.039775053 -0.0956394766 -1.0211544987
H 2.8326640655 0.1117980709 0.7189321543
H 2.3546698046 -1.400649041 -0.0521186707
H 1.0552253418 1.3202153391 -0.5580500728
H 0.5660255781 -0.194403593 -1.3141999216
H 0.0345020303 -1.1301511962 0.9400914497
H 0.4432097927 0.4273483244 1.6647825592
H -1.3323341042 1.5114414808 0.2589579404
H -1.95109792 0.3256674517 1.426533635
H -2.8924742625 0.0856302464 -0.7924357033
H -2.0006382947 -1.2410926311 -0.4395333396
*
