! pbe def2-sv(p) def2/J RI DEFGRID1 loosescf d4 GCP(DFT/SV(P)) printgap
%output
    printlevel normal
end
* xyz 0 1
C -3.6218498109 -0.6246120997 0.2440769063
C -2.2982527933 0.1172465945 0.3750779493
C -1.1632048406 -0.6355923971 -0.3181642379
C 0.1188931181 0.1549165596 -0.3211582781
O 0.1926997088 1.3656176708 -0.3231326161
O 1.1795560545 -0.6454695744 -0.3479287526
C 2.4872310084 -0.0478181451 -0.3740515259
C 2.9725221424 0.2740262491 1.0311190615
H -4.4100045514 -0.0799775074 0.7564440349
H -3.899296762 -0.7287536916 -0.8018926232
H -3.5470831974 -1.6167438577 0.6821048932
H -2.0502302205 0.2470537214 1.4302505425
H -2.3789255828 1.1121466791 -0.0666682343
H -1.4281606828 -0.813677371 -1.3637857744
H -0.9757094723 -1.6020923831 0.1492904578
H 3.1205191593 -0.7956645825 -0.8519717582
H 2.443471236 0.8602464994 -0.9829467881
H 2.3291209646 1.0253253106 1.4836932664
H 2.9588376635 -0.6216550165 1.6460487349
H 3.9851115337 0.6608222392 0.9820137249
*
