! r2scan-3c def2/J RI DEFGRID2 scfconv6 printgap
%output
    printlevel normal
end
* xyz 0 1
C -2.1864061061 -1.3983022137 0.9264319288
C -2.1308911874 -0.563106213 -0.3472032889
C -1.5182956218 0.8262181173 -0.1293118617
C -0.0106140711 0.8568301517 -0.147427173
O 0.6324227133 1.7356362194 -0.6882620052
O 0.5443981694 -0.1544888309 0.5033173526
C 1.9780555076 -0.241127131 0.5379749115
C 2.5098755561 -0.9900256805 -0.6744440885
H -1.1902347485 -1.546136124 1.3314589436
H -2.7968731759 -0.9028062448 1.67764756
H -2.6239606771 -2.3706960727 0.7155066984
H -3.1455660276 -0.4272791295 -0.7247875933
H -1.560816362 -1.0937335096 -1.1117453384
H -1.8396296141 1.2179440156 0.8386118541
H -1.8501392887 1.5225455263 -0.9005552968
H 2.3886701766 0.7724205173 0.575405448
H 2.2005498544 -0.7745812029 1.462627714
H 3.5867238632 -1.0933601078 -0.5898120649
H 2.0580551504 -1.9765701688 -0.7339571706
H 2.2787512375 -0.4382239885 -1.5830318571
*
