! r2scan-3c def2/J RI DEFGRID2 scfconv6 printgap
%output
    printlevel normal
end
%cpcm
    smd true
    smdsolvent "water"
end
* xyz 0 1
C -3.6735330192 0.1712723418 1.8438304344
C -3.0525993915 0.6222137952 0.5213497914
H -3.0895686678 1.7125362286 0.4414414214
C -1.608317801 0.1803091508 0.392637825
C -1.2819532 -1.1909623896 0.4333396936
C 0.0133988412 -1.6068118521 0.3269285314
C 1.0638731192 -0.6757490522 0.1717556426
C 2.4061650866 -1.0707298853 0.0600377337
C 3.4106470035 -0.140011191 -0.0941095722
C 3.0889730017 1.2311782591 -0.1408502553
C 1.786859257 1.6349401212 -0.0334489537
C 0.7406341291 0.7058676527 0.1244542958
C -0.6078389096 1.1022236475 0.2342178218
O 4.6802190644 -0.6328873806 -0.1929997483
C 5.75755287 0.2712477042 -0.3491943385
C -3.7835830229 0.071680156 -0.6840229552
O -3.9245085915 0.6894525408 -1.7202139198
O -4.2269124922 -1.1614518595 -0.5282542218
H -3.6846980644 -0.9114980603 1.9170714005
H -3.0922124657 0.573653257 2.6687764796
H -4.6945855787 0.5361140394 1.9209372711
H -2.0734857572 -1.9163203887 0.5427162387
H 0.2547626101 -2.658782385 0.3577111415
H 2.6666768042 -2.1173259819 0.0938786108
H 3.8653592344 1.9691314394 -0.2618255866
H 1.5463262383 2.6871156636 -0.0705922055
H -0.8391978349 2.1569928471 0.1922691528
H 5.6610306595 0.8475991967 -1.2729812706
H 6.6466265718 -0.3532257874 -0.400979769
H 5.8347164171 0.9476080387 0.5060094127
H -4.669027714 -1.5060126257 -1.3283137965
*
