! r2scan-3c def2/J RI DEFGRID2 scfconv6 printgap
%output
    printlevel normal
end
* xyz 0 1
C -1.7955835299 -1.1920223873 -0.582791786
C -2.3666325263 -0.0617603884 0.264518968
C -1.3250741766 0.6148033554 1.155403042
C -0.2604049452 1.3849124759 0.3666433657
C 0.7802187956 0.5130215106 -0.2856779629
O 1.1774026531 0.6565118305 -1.42598866
O 1.2533387278 -0.4099900394 0.5415388733
C 2.2735615957 -1.2929720404 0.0712491046
H -2.588661859 -1.6837829514 -1.1408462292
H -1.0678391528 -0.8144601589 -1.2982833558
H -1.3081958992 -1.9322233068 0.0480134749
H -2.8211678439 0.685163889 -0.3896911055
H -3.153786239 -0.4653820336 0.9044622089
H -0.8349555535 -0.1308914561 1.7821408124
H -1.8375832322 1.3231291648 1.8077480672
H 0.2820981409 2.0405509531 1.051547737
H -0.7173318834 1.9999716935 -0.4093880613
H 2.2284094466 -1.3704449887 -1.0157127939
H 2.0899793883 -2.2562875817 0.5395576686
H 3.2464539273 -0.9032476403 0.370323933
*
