! r2scan-3c def2/J RI DEFGRID2 scfconv6 printgap
%output
    printlevel normal
end
%cpcm
    smd true
    smdsolvent "water"
end
* xyz 0 1
C -3.3323392639 -0.6672264733 0.7692548919
C -2.8220634621 0.1543436497 -0.4095552945
C -1.4067629815 0.6894603316 -0.1967151635
C -0.3571647102 -0.4184600088 -0.116137991
C 1.0437577647 0.1297529641 -0.1951634657
O 1.3637333683 1.1598425678 -0.7497895035
O 1.9055966182 -0.6753652176 0.4180711304
C 3.2970913517 -0.3383146765 0.4145096438
H -2.752308638 -1.5775748647 0.8918208915
H -3.2703486324 -0.089934117 1.688858972
H -4.3708760338 -0.9460747892 0.6094774673
H -2.846632593 -0.4537421441 -1.3159572593
H -3.4887574263 1.0048568553 -0.5641218625
H -1.3744332948 1.2827056142 0.719326406
H -1.1399199248 1.3506472821 -1.0240639476
H -0.4770948888 -1.0978122922 -0.964399458
H -0.4436545331 -1.0026776906 0.7987460482
H 3.8166753818 -1.0328983987 -0.2440223811
H 3.6535521838 -0.4452808484 1.4362134978
H 3.4288015958 0.685073347 0.0616382115
*
