! pbe def2-sv(p) def2/J RI DEFGRID1 loosescf d4 GCP(DFT/SV(P)) printgap
%output
    printlevel normal
end
* xyz 0 1
C -2.4840006468 -0.7588633122 1.0354106751
C -2.0660855439 -0.7769607073 -0.429888145
C -1.4067414321 0.5431036323 -0.8481278473
C -0.1135199012 0.7672850475 -0.1078555907
O 0.1112502916 1.7037690994 0.6328835779
O 0.7733005763 -0.1839803687 -0.3602998489
C 2.053971931 -0.0961404345 0.2847774125
C 2.9576206183 -1.1597015732 -0.3082387756
H -1.6224406209 -0.5901800941 1.6791411036
H -3.2004061298 0.0386297524 1.218140472
H -2.9411320185 -1.7050763613 1.3121598454
H -2.943864662 -0.9395450099 -1.0560498911
H -1.3640985908 -1.5931153724 -0.60506354
H -2.0661230347 1.3856667653 -0.6401381619
H -1.1794710844 0.5124596793 -1.9142917129
H 2.451874745 0.912203975 0.1291379614
H 1.9091721766 -0.2419030199 1.3604664716
H 3.9310818611 -1.1096645691 0.1681487205
H 2.5291857911 -2.1442660129 -0.1466336164
H 3.0718965815 -0.9981590314 -1.3760323522
*
