! pbe def2-sv(p) def2/J RI DEFGRID1 loosescf d4 GCP(DFT/SV(P)) printgap
%output
    printlevel normal
end
* xyz 0 1
C -2.7581007074 0.1347979187 0.0034653742
C -1.362418603 -0.4118769041 0.2802615522
C -0.3014651499 0.5197722197 -0.2856638139
N 1.0555339107 0.0382738912 -0.0540154908
O 1.9676363301 0.7223774025 -0.4811379595
O 1.2194574538 -1.0036788301 0.5431796982
H -2.9280681232 0.2297991799 -1.0655997735
H -3.5080318321 -0.5363011322 0.4107896629
H -2.8863295096 1.1112181009 0.4627971592
H -1.2542247746 -1.4004651982 -0.1683762379
H -1.2124069827 -0.523351842 1.3551430194
H -0.412399543 0.6441052798 -1.3666221653
H -0.3636296687 1.5163664145 0.160756216
*
