! r2scan-3c def2/J RI DEFGRID2 scfconv6 printgap
%output
    printlevel normal
end
%cpcm
    smd true
    smdsolvent "water"
end
* xyz 0 1
C 1.5535727152 -1.7051297119 0.2493397227
O 0.2947681656 -1.0544040201 0.3798818491
C 0.0237019106 -0.1427796531 -0.6287425262
O 0.8494348285 0.9811999381 -0.5637975409
C 0.6720954125 1.8210686772 0.5794263529
O -1.3227549989 0.183182566 -0.6349362646
C -2.0866476808 -0.0787690557 0.547816123
H 1.5701556873 -2.3124247606 -0.6593629035
H 1.6436237527 -2.333474944 1.1305339411
H 2.363340119 -0.9733942192 0.2143143198
H 0.261188678 -0.5657178639 -1.6241794476
H 0.7477020717 1.2364801003 1.4991304008
H -0.2927512232 2.3290903861 0.5288140364
H 1.4799367897 2.545143985 0.5249311455
H -3.0684703667 0.3282984698 0.3230373855
H -1.6601595999 0.4115915039 1.4225166161
H -2.149371236 -1.1528544178 0.7268184149
*
