! r2scan-3c def2/J RI DEFGRID2 scfconv6 printgap
%output
    printlevel normal
end
%cpcm
    smd true
    smdsolvent "water"
end
* xyz 0 1
C -3.1599455475 -0.7750680334 -0.0606203272
C -2.2662667835 0.3067198059 -0.6571280451
C -1.4102118091 1.0211368626 0.3902117919
C -0.2891897306 0.1535971145 0.9737408834
C 0.8511830081 -0.0694417447 0.0149220532
O 0.7555139449 -0.2767961429 -1.1760920724
O 2.016027815 -0.0192044607 0.6571074417
C 3.227302746 -0.2385304064 -0.0729300975
H -3.7913899274 -0.3586735159 0.7211314001
H -3.7998966862 -1.1970537863 -0.8314026423
H -2.5714763203 -1.5845551506 0.3638329955
H -1.6135630227 -0.1272745029 -1.4155965939
H -2.8965233002 1.0508277477 -1.1484533362
H -2.0512073798 1.3470661235 1.2111822238
H -0.9656058736 1.9098277561 -0.0623282655
H -0.6851991346 -0.8280324714 1.2404780185
H 0.1228312765 0.6084217164 1.8743854926
H 2.9959578942 -0.4565267858 -1.1162011705
H 3.7429883465 -1.0779165658 0.389289751
H 3.8298323931 0.6647638519 0.002591182
*
