! r2scan-3c def2/J RI DEFGRID2 scfconv6 printgap
%output
    printlevel normal
end
* xyz 0 1
C -2.9876769202 -0.8899010987 -0.2230472052
C -2.5514253224 0.2907676509 0.6376365942
C -1.7825958172 1.3517250836 -0.1682178592
C -0.3424953444 1.5255724455 0.2654111448
I 0.8750668459 -0.2520020016 -0.056292782
H -2.127189246 -1.3779207683 -0.6749856917
H -3.5149120769 -1.6234751255 0.3817802274
H -3.6529970146 -0.5578638267 -1.0168693225
H -1.924425608 -0.0776290806 1.4524995207
H -3.4353546696 0.7415889352 1.0910166419
H -1.8184794687 1.1035040334 -1.2307128461
H -2.2573572226 2.3288218413 -0.0472760022
H -0.2663953461 1.7293448048 1.3302293139
H 0.1494818731 2.315003446 -0.296616531
*
