! r2scan-3c def2/J RI DEFGRID2 scfconv6 printgap
%output
    printlevel normal
end
* xyz 0 1
C -2.0805112909 -1.5443437272 -0.0580365135
C -2.4157478741 -0.0594883953 -0.1283026693
C -1.3935930989 0.7878410362 0.6379717839
C -0.042643083 0.7169699731 -0.0264636811
O 0.1782220884 1.0243457979 -1.1795027534
O 0.8907965735 0.2807752142 0.8102380029
C 2.2362180996 0.137155267 0.3254646025
C 2.4436134471 -1.2262399534 -0.3164880087
H -2.0383977299 -1.8780452884 0.9759483391
H -2.8338582402 -2.1277223006 -0.5805924922
H -1.1152916829 -1.7388720861 -0.5216235357
H -3.4044059681 0.1139880679 0.2972983618
H -2.4276153018 0.2664298787 -1.1701839822
H -1.2950977735 0.4447889209 1.6670191504
H -1.710418413 1.8318324761 0.6293147852
H 2.4347081064 0.9364549954 -0.3950905965
H 2.8622329388 0.2588684539 1.209833488
H 1.8204557854 -1.3190769749 -1.2034862755
H 3.4838608704 -1.333876689 -0.6055916249
H 2.1820452138 -2.0137677303 0.3852114153
*
