! r2scan-3c def2/J RI DEFGRID2 scfconv6 printgap
%output
    printlevel normal
end
%cpcm
    smd true
    smdsolvent "water"
end
* xyz 0 1
C -4.6957479965 -0.9889616697 -0.2668682681
C -4.0009353736 -2.1818335861 -0.1221341842
C -2.6267768268 -2.1686782333 0.0291596402
C -1.9223312217 -0.9664428079 0.0373008917
C -2.6245375572 0.2350775603 -0.1096014094
C -4.0099788941 0.2109147392 -0.260099747
C -1.9185965308 1.5223630635 -0.1080751931
O -2.5224187483 2.5862205331 -0.2312133691
C -0.4537204824 1.4775378382 0.0444926236
C 0.2149002871 2.6890799212 0.0174676244
C 1.6007566937 2.7316966723 0.1453067864
C 2.3133292145 1.573791025 0.3049730792
C 1.6730053618 0.3114047335 0.3509959308
C 0.2516143623 0.2615526137 0.2079216081
C -0.4564795357 -1.0006583834 0.208215956
O 0.1062424806 -2.1024049843 0.3383875018
N 2.3748487271 -0.8131253185 0.5512684859
C 3.8074167341 -0.9294184794 0.6017431757
C 4.4405425315 -0.9088219572 -0.8059188616
O 5.84615263 -0.9032181004 -0.7564242484
H -5.7678685309 -0.996234343 -0.3844619982
H -4.5314870313 -3.1210237142 -0.1268284061
H -2.0685439344 -3.0858910258 0.144661692
H -4.5242510321 1.1541388541 -0.3707567824
H -0.3639056779 3.591014322 -0.1089523984
H 2.1112228316 3.681428404 0.1156950589
H 3.3850274509 1.6230689192 0.3967952315
H 1.8288353114 -1.6716203241 0.5059323828
H 4.0416389546 -1.8768243957 1.0903612652
H 4.2418645146 -0.1227671156 1.1974426027
H 4.1578694107 0.0101132304 -1.3252113825
H 4.0700452439 -1.7607339631 -1.389787798
H 6.1604952986 -1.735016749 -0.3753285078
*
