! pbe def2-sv(p) def2/J RI DEFGRID1 loosescf d4 GCP(DFT/SV(P)) printgap
%output
    printlevel normal
end
* xyz 0 1
C -3.4941437381 1.7060082304 -0.933779993
C -3.152792524 0.2417764789 -0.6715374345
H -3.5915871254 -0.3908230759 -1.4487886669
C -1.6663371689 -0.0557587142 -0.5994133546
C -1.2298201035 -1.3536466428 -0.9399684775
C 0.0893977346 -1.6946264739 -0.870493643
C 1.0575269275 -0.7539562291 -0.4544720102
C 2.4232711263 -1.0677983372 -0.375737738
C 3.3454971241 -0.1303996639 0.0367607416
C 2.9138455208 1.1648947692 0.3854928456
C 1.5869612398 1.488375272 0.3159125248
C 0.6229137816 0.5505590978 -0.1016736798
C -0.7489316526 0.8683788803 -0.1750377368
O 4.6470405317 -0.5414351323 0.077420045
C 5.6432920446 0.3744771761 0.4915248628
C -3.6923769669 -0.2490834284 0.6570156992
O -4.1664384608 -1.3540795886 0.8257611628
O -3.5465991059 0.620733304 1.6389777959
H -3.2378484472 2.3245631928 -0.0794566555
H -2.9505984575 2.0558495275 -1.806855875
H -4.5605063819 1.8055180766 -1.1205297334
H -1.9642977009 -2.0825412385 -1.2512792091
H 0.4123986297 -2.6909225708 -1.1333838998
H 2.7668886385 -2.0560332577 -0.6400436019
H 3.6255051426 1.9073698598 0.7083246778
H 1.2628977852 2.4827587845 0.5844064361
H -1.0551830055 1.8619996183 0.1107982371
H 5.6935812502 1.2356371843 -0.1797858968
H 6.5772750791 -0.1808325723 0.4419713366
H 5.4714649241 0.7103066448 1.5174323968
H -3.8525188743 0.2731788144 2.4988567265
*
