! r2scan-3c def2/J RI DEFGRID2 scfconv6 printgap
%output
    printlevel normal
end
%cpcm
    smd true
    smdsolvent "water"
end
* xyz 0 1
C -2.1084161038 -1.5372387286 0.0201734971
C -2.425881295 -0.0496636679 0.1123063953
C -1.3851604578 0.7968488328 -0.628592849
C -0.04183308 0.702925339 0.0485590871
O 0.16377232 0.9572360313 1.2171723242
O 0.9046634274 0.3147401723 -0.7972925573
C 2.2465459702 0.162285221 -0.305346092
C 2.4630993728 -1.2289079101 0.2704449513
H -2.8734003838 -2.1198424158 0.5263992611
H -2.0611621399 -1.8544010797 -1.0187966996
H -1.1498033273 -1.7509902456 0.489053442
H -2.4441339446 0.2583810379 1.1594881139
H -3.4078969263 0.1434805433 -0.3201470511
H -1.6897345176 1.8444849632 -0.6078963745
H -1.2783460719 0.4701621174 -1.6621697757
H 2.8804013001 0.3347286798 -1.1755898637
H 2.4280846978 0.9270252184 0.4560327406
H 1.8317059569 -1.3727617832 1.1446896549
H 2.2181684432 -1.9834478086 -0.4722779303
H 3.5014540784 -1.3390792188 0.5653922632
*
