! pbe def2-sv(p) def2/J RI DEFGRID1 loosescf d4 GCP(DFT/SV(P)) printgap
%output
    printlevel normal
end
* xyz 0 1
C -3.5986943645 -0.7018065583 0.162305941
C -2.2556395396 -0.0608934401 0.486507844
C -1.1812847695 -0.4724714824 -0.5209952202
C 0.1105481065 0.2679964434 -0.2938680099
O 0.1971769202 1.4218565053 0.0704300272
O 1.1618772362 -0.4971762759 -0.5658803981
C 2.476436751 0.0650043825 -0.4115069326
C 2.9579166321 -0.0517146218 1.0266104933
H -3.9429938992 -0.3902159798 -0.8205663822
H -3.5149703941 -1.7855813438 0.1716233238
H -4.3427016941 -0.406972002 0.8970675029
H -1.9388917916 -0.3556976053 1.4888303619
H -2.34478315 1.026995524 0.4765725254
H -1.5182951542 -0.2237807305 -1.5306513691
H -0.9821333543 -1.543009531 -0.4820882862
H 3.1032733082 -0.514983594 -1.0892742334
H 2.446185452 1.1134956296 -0.7230567534
H 2.3221293241 0.5410101256 1.6806026029
H 2.9281736449 -1.0892631156 1.3481738307
H 3.9760514882 0.3169471573 1.096230198
*
