! pbe def2-sv(p) def2/J RI DEFGRID1 loosescf d4 GCP(DFT/SV(P)) printgap
%output
    printlevel normal
end
* xyz 0 1
C -3.2505315348 -0.8999548553 -0.3198884185
C -1.8576906139 -0.627572914 0.2352573122
C -1.4996082976 0.8548106237 0.1522145186
C -0.1158589915 1.1435642999 0.7451413469
C 0.9570459453 0.4829392782 -0.0799986488
O 1.1564427879 0.690432869 -1.2587534328
O 1.6669665413 -0.3813182224 0.6369127637
C 2.720879191 -1.0924403328 -0.0182328763
H -3.4873628619 -1.9585731705 -0.2533844296
H -3.997721685 -0.3429892914 0.239969643
H -3.3084533918 -0.5991561517 -1.3633373152
H -1.8096393593 -0.9534311362 1.2763430293
H -1.1222080987 -1.2076445247 -0.3281592151
H -2.2444115112 1.4393020288 0.6935139992
H -1.5062478295 1.1735299596 -0.8922400542
H -0.0455262341 0.7769519815 1.7683457063
H 0.0662811246 2.2189638059 0.7270231214
H 2.948379221 -1.9405128272 0.6201396121
H 3.590401919 -0.4433991354 -0.1249887627
H 2.3936590225 -1.4176073496 -1.0066429687
*
