! r2scan-3c def2/J RI DEFGRID2 scfconv6 printgap
%output
    printlevel normal
end
* xyz 0 1
C -3.9287087316 0.0873189564 -0.2959187663
C -2.7001201415 -0.2561856464 0.5376324764
C -1.4078898736 0.0781509983 -0.203116607
C -0.1740443503 -0.26004863 0.6284231644
C 1.1069196005 0.0212962761 -0.1104191994
O 1.195854587 0.3456201972 -1.2749400053
O 2.1662860684 -0.1352883756 0.6812943057
C 3.4573736466 0.085661827 0.1067761676
H -3.9217912652 -0.4687965657 -1.2304275807
H -4.8385721842 -0.1589716381 0.2452700247
H -3.9441293554 1.148851166 -0.5314965817
H -2.7318441067 0.2999600962 1.476536665
H -2.7125328584 -1.3207235271 0.779471561
H -1.3903216751 1.1405469961 -0.4544665715
H -1.3653156567 -0.4749148964 -1.1435102179
H -0.1710875685 -1.3194776881 0.8947484595
H -0.1582644738 0.3075764856 1.5601874319
H 4.1638738852 -0.0312208176 0.9222255666
H 3.509714211 1.0883489902 -0.3190051849
H 3.6441247688 -0.644581178 -0.6813759896
*
