! pbe def2-sv(p) def2/J RI DEFGRID1 loosescf d4 GCP(DFT/SV(P)) printgap
%output
    printlevel normal
end
* xyz 0 1
C 1.7520573935 0.6699888373 0.4136684011
C 1.3696847127 -0.3829466201 -0.2842801279
C -0.0514606537 -0.8210373439 -0.4937832742
C -1.03174106 -0.1312757993 0.4003023256
C -2.0173475928 0.6378370061 -0.0221989376
H 2.7906768484 0.9339281481 0.5175197288
H 1.0430303065 1.3136238185 0.9071966114
H 2.1078477013 -1.0028491394 -0.777237741
H -0.1044165001 -1.8999223824 -0.3146742735
H -0.3169010879 -0.650647731 -1.5413875566
H -0.8877958727 -0.303615372 1.4591911656
H -2.7062262588 1.110324388 0.6571716658
H -2.1787509325 0.8260639612 -1.0711302904
*
